data_dAg09-nh2
_audit_creation_date              2025-09-02
_audit_creation_method            'Materials Studio'
_symmetry_space_group_name_H-M    'P-4N2'
_symmetry_Int_Tables_number       118
_symmetry_cell_setting            tetragonal
loop_
_symmetry_equiv_pos_as_xyz
  x,y,z
  -x,-y,z
  y,-x,-z
  -y,x,-z
  x+1/2,-y+1/2,z+1/2
  -x+1/2,y+1/2,z+1/2
  y+1/2,x+1/2,-z+1/2
  -y+1/2,-x+1/2,-z+1/2
_cell_length_a                    32.0310
_cell_length_b                    32.0310
_cell_length_c                    15.2158
_cell_angle_alpha                 90.0000
_cell_angle_beta                  90.0000
_cell_angle_gamma                 90.0000
loop_
_atom_site_label
_atom_site_type_symbol
_atom_site_fract_x
_atom_site_fract_y
_atom_site_fract_z
_atom_site_U_iso_or_equiv
_atom_site_adp_type
_atom_site_occupancy
C1     C     0.54223   0.40171   0.40640   0.00000  Uiso   1.00
C2     C     0.56842   0.37371   0.36388   0.00000  Uiso   1.00
H3     H     0.51875   0.39073   0.45213   0.00000  Uiso   1.00
H4     H     0.56533   0.34074   0.37749   0.00000  Uiso   1.00
C5     C     0.62033   0.31647   0.25926   0.00000  Uiso   1.00
C6     C     0.64986   0.28730   0.23184   0.00000  Uiso   1.00
H7     H     0.58887   0.30609   0.27235   0.00000  Uiso   1.00
C8     C     0.07756   0.04104   0.83673   0.00000  Uiso   1.00
C9     C     0.10374   0.06902   0.79379   0.00000  Uiso   1.00
H10    H     0.08138   0.00775   0.82758   0.00000  Uiso   1.00
H11    H     0.12753   0.05721   0.74998   0.00000  Uiso   1.00
C12    C     0.17069   0.12840   0.74949   0.00000  Uiso   1.00
C13    C     0.20033   0.15683   0.72068   0.00000  Uiso   1.00
H14    H     0.17963   0.09617   0.75818   0.00000  Uiso   1.00
C15    C     0.13426   0.25569   0.71919   0.00000  Uiso   1.00
N16    N     0.15860   0.28774   0.72392   0.00000  Uiso   1.00
H17    H     0.10096   0.26036   0.71143   0.00000  Uiso   1.00
C18    C     0.14268   0.33041   0.71999   0.00000  Uiso   1.00
H19    H     0.10946   0.33164   0.74101   0.00000  Uiso   1.00
H20    H     0.14528   0.34218   0.65147   0.00000  Uiso   1.00
C21    C     0.54721   0.44436   0.39422   0.00000  Uiso   1.00
C22    C     0.59997   0.38809   0.30836   0.00000  Uiso   1.00
C23    C     0.63056   0.35843   0.27051   0.00000  Uiso   1.00
C24    C     0.69085   0.30103   0.21387   0.00000  Uiso   1.00
O25    O     0.72311   0.27468   0.18807   0.00000  Uiso   1.00
C26    C     0.47789   0.52596   0.44908   0.00000  Uiso   1.00
O27    O     0.50389   0.54941   0.50019   0.00000  Uiso   1.00
N28    N     0.24152   0.14301   0.70100   0.00000  Uiso   1.00
H29    H     0.24932   0.11149   0.70660   0.00000  Uiso   1.00
H30    H     0.26416   0.16440   0.68081   0.00000  Uiso   1.00
Ag31   Ag    0.22050   0.27950   0.75000   0.00000  Uiso   1.00
O32    O     0.50000   0.50000   0.39496   0.00000  Uiso   1.00
loop_
_geom_bond_atom_site_label_1
_geom_bond_atom_site_label_2
_geom_bond_distance
_geom_bond_site_symmetry_2
_ccdc_geom_bond_type
C1     C21     1.388   .     A
C1     C2      1.388   .     A
C1     H3      1.083   .     S
C2     C22     1.395   .     A
C2     H4      1.081   .     S
C5     C23     1.394   .     A
C5     C6      1.394   .     A
C5     H7      1.080   .     S
C6     C24     1.412   .     A
C6     C15     1.477   5_554 S
C8     C21     1.389   5_455 A
C8     C9      1.391   .     A
C8     H10     1.082   .     S
C9     C22     1.397   5_455 A
C9     H11     1.081   .     S
C12    C23     1.390   5_455 A
C12    C13     1.387   .     A
C12    H14     1.079   .     S
C13    C24     1.387   5_455 A
C13    N28     1.424   .     S
C15    N16     1.291   .     D
C15    H17     1.084   .     S
C15    C6      1.477   5_455 S
N16    Ag31    2.039   .     S
N16    C18     1.460   .     S
C18    H19     1.112   .     S
C18    H20     1.112   .     S
C18    C18     1.523   8_556 S
C21    C8      1.389   5_554 A
C21    C26     1.499   2_665 S
C22    C9      1.397   5_554 A
C22    C23     1.481   .     S
C23    C12     1.390   5_554 A
C24    C13     1.387   5_554 A
C24    O25     1.391   .     S
O25    Ag31    1.976   4_656 S
C26    O32     1.368   .     S
C26    O27     1.364   4_656 S
C26    C21     1.499   2_665 S
O27    C26     1.364   3_566 S
N28    H29     1.044   .     S
N28    H30     1.044   .     S
Ag31   N16     2.039   8_556 S
Ag31   O25     1.976   3_566 S
Ag31   O25     1.976   5_455 S
O32    C26     1.368   2_665 S
