data_dAg05-nh2
_audit_creation_date              2025-09-02
_audit_creation_method            'Materials Studio'
_symmetry_space_group_name_H-M    'P-4N2'
_symmetry_Int_Tables_number       118
_symmetry_cell_setting            tetragonal
loop_
_symmetry_equiv_pos_as_xyz
  x,y,z
  -x,-y,z
  y,-x,-z
  -y,x,-z
  x+1/2,-y+1/2,z+1/2
  -x+1/2,y+1/2,z+1/2
  y+1/2,x+1/2,-z+1/2
  -y+1/2,-x+1/2,-z+1/2
_cell_length_a                    22.5330
_cell_length_b                    22.5330
_cell_length_c                    20.3358
_cell_angle_alpha                 90.0000
_cell_angle_beta                  90.0000
_cell_angle_gamma                 90.0000
loop_
_atom_site_label
_atom_site_type_symbol
_atom_site_fract_x
_atom_site_fract_y
_atom_site_fract_z
_atom_site_U_iso_or_equiv
_atom_site_adp_type
_atom_site_occupancy
C1     C     0.46654   0.45893   0.54173   0.00000  Uiso   1.00
C2     C     0.43923   0.42549   0.57681   0.00000  Uiso   1.00
C3     C     0.59309   0.61387   0.61933   0.00000  Uiso   1.00
C4     C     0.56821   0.66720   0.63866   0.00000  Uiso   1.00
C5     C     0.64852   0.59758   0.64276   0.00000  Uiso   1.00
C6     C     0.59882   0.70425   0.68125   0.00000  Uiso   1.00
H7     H     0.52468   0.67973   0.62099   0.00000  Uiso   1.00
C8     C     0.68024   0.63433   0.68520   0.00000  Uiso   1.00
H9     H     0.66697   0.55523   0.62826   0.00000  Uiso   1.00
C10    C     0.65485   0.68891   0.70432   0.00000  Uiso   1.00
C11    C     0.73657   0.60969   0.71019   0.00000  Uiso   1.00
O12    O     0.68127   0.72846   0.74814   0.00000  Uiso   1.00
N13    N     0.77691   0.64157   0.73839   0.00000  Uiso   1.00
H14    H     0.74470   0.56304   0.70188   0.00000  Uiso   1.00
C15    C     0.83460   0.61949   0.76007   0.00000  Uiso   1.00
H16    H     0.83410   0.61632   0.81456   0.00000  Uiso   1.00
N17    N     0.42721   0.24121   0.70164   0.00000  Uiso   1.00
C18    C     0.41203   0.95889   0.25779   0.00000  Uiso   1.00
C19    C     0.35130   0.94075   0.23143   0.00000  Uiso   1.00
H20    H     0.40930   0.96501   0.31189   0.00000  Uiso   1.00
H21    H     0.42526   0.00168   0.23512   0.00000  Uiso   1.00
H22    H     0.35267   0.93826   0.17692   0.00000  Uiso   1.00
H23    H     0.31843   0.97468   0.24683   0.00000  Uiso   1.00
H24    H     0.46920   0.22902   0.68473   0.00000  Uiso   1.00
H25    H     0.40437   0.21314   0.73368   0.00000  Uiso   1.00
C26    C     0.50000   0.50000   0.50000   0.00000  Uiso   1.00
Ag27   Ag    0.23045   0.26955   0.75000   0.00000  Uiso   1.00
loop_
_geom_bond_atom_site_label_1
_geom_bond_atom_site_label_2
_geom_bond_distance
_geom_bond_site_symmetry_2
_ccdc_geom_bond_type
C1     C26     1.465   .     S
C1     C2      1.206   .     T
C2     C3      1.437   2_665 S
C3     C4      1.383   .     S
C3     C5      1.386   .     D
C3     C2      1.437   2_665 S
C4     C6      1.387   .     D
C4     H7      1.082   .     S
C5     C8      1.393   .     S
C5     H9      1.082   .     S
C6     C10     1.391   .     S
C6     N17     1.424   2_665 S
C8     C10     1.411   .     D
C8     C11     1.476   .     S
C10    O12     1.394   .     S
C11    N13     1.293   .     D
C11    H14     1.080   .     S
O12    Ag27    1.990   2_665 S
N13    C15     1.460   .     S
N13    Ag27    2.024   2_665 S
C15    H16     1.111   .     S
C15    C15     1.519   8_666 S
C15    C19     1.524   5_565 S
N17    C6      1.424   2_665 S
N17    H24     1.044   .     S
N17    H25     1.044   .     S
C18    C19     1.525   .     S
C18    C18     1.527   7_455 S
C18    H20     1.110   .     S
C18    H21     1.110   1_565 S
C19    C15     1.524   5_464 S
C19    H22     1.110   .     S
C19    H23     1.110   .     S
H21    C18     1.110   1_545 S
C26    C1      1.465   2_665 S
C26    C1      1.465   3_566 S
C26    C1      1.465   4_656 S
Ag27   O12     1.990   2_665 S
Ag27   O12     1.990   7_446 S
Ag27   N13     2.024   2_665 S
Ag27   N13     2.024   7_446 S
