data_dAg03-ch3
_audit_creation_date              2025-09-02
_audit_creation_method            'Materials Studio'
_symmetry_space_group_name_H-M    'P-4N2'
_symmetry_Int_Tables_number       118
_symmetry_cell_setting            tetragonal
loop_
_symmetry_equiv_pos_as_xyz
  x,y,z
  -x,-y,z
  y,-x,-z
  -y,x,-z
  x+1/2,-y+1/2,z+1/2
  -x+1/2,y+1/2,z+1/2
  y+1/2,x+1/2,-z+1/2
  -y+1/2,-x+1/2,-z+1/2
_cell_length_a                    18.9154
_cell_length_b                    18.9154
_cell_length_c                    34.9524
_cell_angle_alpha                 90.0000
_cell_angle_beta                  90.0000
_cell_angle_gamma                 90.0000
loop_
_atom_site_label
_atom_site_type_symbol
_atom_site_fract_x
_atom_site_fract_y
_atom_site_fract_z
_atom_site_U_iso_or_equiv
_atom_site_adp_type
_atom_site_occupancy
C1     C     0.56955   0.61904   0.53140   0.00000  Uiso   1.00
C2     C     0.61216   0.65288   0.55806   0.00000  Uiso   1.00
H3     H     0.53991   0.65005   0.51092   0.00000  Uiso   1.00
H4     H     0.61616   0.70986   0.55762   0.00000  Uiso   1.00
C5     C     0.38413   0.74547   0.36590   0.00000  Uiso   1.00
C6     C     0.35390   0.78062   0.33491   0.00000  Uiso   1.00
H7     H     0.43535   0.76230   0.37605   0.00000  Uiso   1.00
C8     C     0.89908   0.00673   0.05858   0.00000  Uiso   1.00
C9     C     0.85650   0.04047   0.08518   0.00000  Uiso   1.00
H10    H     0.90477   0.94981   0.05949   0.00000  Uiso   1.00
H11    H     0.82983   0.00933   0.10672   0.00000  Uiso   1.00
C12    C     0.78288   0.82994   0.87165   0.00000  Uiso   1.00
C13    C     0.75145   0.79516   0.84110   0.00000  Uiso   1.00
H14    H     0.75564   0.87367   0.88494   0.00000  Uiso   1.00
C15    C     0.89525   0.65895   0.82007   0.00000  Uiso   1.00
N16    N     0.88830   0.63538   0.78560   0.00000  Uiso   1.00
H17    H     0.93692   0.63764   0.83794   0.00000  Uiso   1.00
C18    C     0.93801   0.58352   0.77027   0.00000  Uiso   1.00
H19    H     0.93949   0.53601   0.78901   0.00000  Uiso   1.00
H20    H     0.99182   0.60711   0.76943   0.00000  Uiso   1.00
C21    C     0.56324   0.54587   0.53188   0.00000  Uiso   1.00
C22    C     0.64877   0.61397   0.58557   0.00000  Uiso   1.00
C23    C     0.35008   0.68929   0.38390   0.00000  Uiso   1.00
C24    C     0.28667   0.75858   0.32190   0.00000  Uiso   1.00
O25    O     0.25176   0.78805   0.29072   0.00000  Uiso   1.00
C26    C     0.68005   0.81710   0.82752   0.00000  Uiso   1.00
H27    H     0.64331   0.77150   0.82938   0.00000  Uiso   1.00
H28    H     0.68357   0.83499   0.79734   0.00000  Uiso   1.00
H29    H     0.65944   0.86097   0.84541   0.00000  Uiso   1.00
Si30   Si    0.50000   0.50000   0.50000   0.00000  Uiso   1.00
Ag31   Ag    0.81778   0.68222   0.75000   0.00000  Uiso   1.00
loop_
_geom_bond_atom_site_label_1
_geom_bond_atom_site_label_2
_geom_bond_distance
_geom_bond_site_symmetry_2
_ccdc_geom_bond_type
C1     C21     1.389   .     A
C1     C2      1.388   .     A
C1     H3      1.082   .     S
C2     C22     1.395   .     A
C2     H4      1.081   .     S
C5     C23     1.393   .     A
C5     C6      1.394   .     A
C5     H7      1.080   .     S
C6     C24     1.414   .     A
C6     C15     1.479   5_464 S
C8     C21     1.388   6_644 A
C8     C9      1.386   .     A
C8     H10     1.082   1_545 S
C9     C22     1.394   6_644 A
C9     H11     1.081   .     S
H10    C8      1.082   1_565 S
C12    C23     1.390   5_565 A
C12    C13     1.388   .     A
C12    H14     1.080   .     S
C13    C24     1.389   5_565 A
C13    C26     1.491   .     S
C15    C6      1.479   5_565 S
C15    N16     1.291   .     D
C15    H17     1.083   .     S
N16    Ag31    2.028   .     S
N16    C18     1.461   .     S
C18    H19     1.112   .     S
C18    H20     1.112   .     S
C18    C18     1.529   8_666 S
C21    Si30    1.851   .     S
C21    C8      1.388   6_655 A
C22    C9      1.394   6_655 A
C22    C23     1.479   3_566 S
C23    C12     1.390   5_464 A
C23    C22     1.479   4_656 S
C24    C13     1.389   5_464 A
C24    O25     1.391   .     S
O25    Ag31    1.975   4_656 S
C26    H27     1.110   .     S
C26    H28     1.110   .     S
C26    H29     1.110   .     S
Si30   C21     1.851   2_665 S
Si30   C21     1.851   3_566 S
Si30   C21     1.851   4_656 S
Ag31   O25     1.975   5_565 S
Ag31   O25     1.975   3_566 S
Ag31   N16     2.028   8_666 S
