data_dAg01-oh
_audit_creation_date              2025-09-02
_audit_creation_method            'Materials Studio'
_symmetry_space_group_name_H-M    'P-4N2'
_symmetry_Int_Tables_number       118
_symmetry_cell_setting            tetragonal
loop_
_symmetry_equiv_pos_as_xyz
  x,y,z
  -x,-y,z
  y,-x,-z
  -y,x,-z
  x+1/2,-y+1/2,z+1/2
  -x+1/2,y+1/2,z+1/2
  y+1/2,x+1/2,-z+1/2
  -y+1/2,-x+1/2,-z+1/2
_cell_length_a                    31.9752
_cell_length_b                    31.9752
_cell_length_c                    29.6318
_cell_angle_alpha                 90.0000
_cell_angle_beta                  90.0000
_cell_angle_gamma                 90.0000
loop_
_atom_site_label
_atom_site_type_symbol
_atom_site_fract_x
_atom_site_fract_y
_atom_site_fract_z
_atom_site_U_iso_or_equiv
_atom_site_adp_type
_atom_site_occupancy
C1     C     0.51117   0.55201   0.56316   0.00000  Uiso   1.00
C2     C     0.53630   0.57459   0.59257   0.00000  Uiso   1.00
H3     H     0.47752   0.55526   0.56505   0.00000  Uiso   1.00
H4     H     0.52230   0.59553   0.61693   0.00000  Uiso   1.00
C5     C     0.37337   0.69310   0.31431   0.00000  Uiso   1.00
C6     C     0.34975   0.71855   0.28580   0.00000  Uiso   1.00
H7     H     0.40156   0.70522   0.32962   0.00000  Uiso   1.00
C8     C     0.92777   0.02025   0.03073   0.00000  Uiso   1.00
C9     C     0.90269   0.04291   0.06019   0.00000  Uiso   1.00
H10    H     0.91311   0.99845   0.00780   0.00000  Uiso   1.00
H11    H     0.86909   0.03911   0.05937   0.00000  Uiso   1.00
C12    C     0.82605   0.86412   0.80343   0.00000  Uiso   1.00
C13    C     0.80218   0.83956   0.77466   0.00000  Uiso   1.00
H14    H     0.81697   0.89605   0.81024   0.00000  Uiso   1.00
C15    C     0.86775   0.73953   0.77738   0.00000  Uiso   1.00
N16    N     0.84604   0.70839   0.76249   0.00000  Uiso   1.00
H17    H     0.89993   0.73418   0.78728   0.00000  Uiso   1.00
C18    C     0.86390   0.66636   0.76148   0.00000  Uiso   1.00
H19    H     0.86962   0.65570   0.79664   0.00000  Uiso   1.00
H20    H     0.89419   0.66665   0.74303   0.00000  Uiso   1.00
C21    C     0.52876   0.52518   0.53109   0.00000  Uiso   1.00
C22    C     0.57939   0.57025   0.59092   0.00000  Uiso   1.00
C23    C     0.59390   0.39467   0.37884   0.00000  Uiso   1.00
C24    C     0.61406   0.37311   0.35351   0.00000  Uiso   1.00
C25    C     0.36148   0.65228   0.32345   0.00000  Uiso   1.00
C26    C     0.31303   0.70175   0.26608   0.00000  Uiso   1.00
O27    O     0.28668   0.72355   0.23703   0.00000  Uiso   1.00
O28    O     0.76654   0.85604   0.75449   0.00000  Uiso   1.00
H29    H     0.76197   0.88622   0.76357   0.00000  Uiso   1.00
C30    C     0.50000   0.50000   0.50000   0.00000  Uiso   1.00
Ag31   Ag    0.78405   0.71595   0.75000   0.00000  Uiso   1.00
loop_
_geom_bond_atom_site_label_1
_geom_bond_atom_site_label_2
_geom_bond_distance
_geom_bond_site_symmetry_2
_ccdc_geom_bond_type
C1     C21     1.398   .     A
C1     C2      1.388   .     A
C1     H3      1.082   .     S
C2     C22     1.386   .     A
C2     H4      1.082   .     S
C5     C25     1.386   .     A
C5     C6      1.395   .     A
C5     H7      1.081   .     S
C6     C26     1.417   .     A
C6     C15     1.480   5_464 S
C8     C21     1.399   6_644 A
C8     C9      1.389   .     A
C8     H10     1.080   1_545 S
C9     C22     1.386   6_644 A
C9     H11     1.082   .     S
H10    C8      1.080   1_565 S
C12    C25     1.382   5_565 A
C12    C13     1.388   .     A
C12    H14     1.081   .     S
C13    C26     1.389   5_565 A
C13    O28     1.390   .     S
C15    C6      1.480   5_565 S
C15    N16     1.291   .     D
C15    H17     1.084   .     S
N16    Ag31    2.031   .     S
N16    C18     1.461   .     S
C18    H19     1.111   .     S
C18    H20     1.112   .     S
C18    C18     1.528   8_666 S
C21    C30     1.530   .     S
C21    C8      1.399   6_655 A
C22    C9      1.386   6_655 A
C22    C23     1.436   4_656 S
C23    C24     1.206   .     T
C23    C22     1.436   3_566 S
C24    C25     1.437   2_665 S
C25    C12     1.382   5_464 A
C25    C24     1.437   2_665 S
C26    C13     1.389   5_464 A
C26    O27     1.392   .     S
O27    Ag31    1.974   4_656 S
O28    H29     1.012   .     S
C30    C21     1.530   2_665 S
C30    C21     1.530   3_566 S
C30    C21     1.530   4_656 S
Ag31   O27     1.974   5_565 S
Ag31   O27     1.974   3_566 S
Ag31   N16     2.031   8_666 S
