data_dAg02-oh
_audit_creation_date              2025-09-02
_audit_creation_method            'Materials Studio'
_symmetry_space_group_name_H-M    'P222'
_symmetry_Int_Tables_number       16
_symmetry_cell_setting            orthorhombic
loop_
_symmetry_equiv_pos_as_xyz
  x,y,z
  -x,-y,z
  -x,y,-z
  x,-y,-z
_cell_length_a                    28.7620
_cell_length_b                    36.7777
_cell_length_c                    30.4880
_cell_angle_alpha                 90.0000
_cell_angle_beta                  90.0000
_cell_angle_gamma                 90.0000
loop_
_atom_site_label
_atom_site_type_symbol
_atom_site_fract_x
_atom_site_fract_y
_atom_site_fract_z
_atom_site_U_iso_or_equiv
_atom_site_adp_type
_atom_site_occupancy
C1     C     0.53601   0.52871   0.53637   0.00000  Uiso   1.00
C2     C     0.51870   0.56172   0.55134   0.00000  Uiso   1.00
C3     C     0.57956   0.51697   0.55011   0.00000  Uiso   1.00
C4     C     0.54542   0.58348   0.57864   0.00000  Uiso   1.00
H5     H     0.48442   0.57061   0.54147   0.00000  Uiso   1.00
C6     C     0.60634   0.53873   0.57744   0.00000  Uiso   1.00
H7     H     0.59276   0.49090   0.53941   0.00000  Uiso   1.00
C8     C     0.58939   0.57213   0.59151   0.00000  Uiso   1.00
H9     H     0.53200   0.60937   0.58976   0.00000  Uiso   1.00
H10    H     0.64045   0.52968   0.58765   0.00000  Uiso   1.00
C11    C     0.61736   0.40490   0.38099   0.00000  Uiso   1.00
C12    C     0.64067   0.38525   0.35821   0.00000  Uiso   1.00
C13    C     0.33171   0.63854   0.33139   0.00000  Uiso   1.00
C14    C     0.28652   0.64667   0.34336   0.00000  Uiso   1.00
C15    C     0.35038   0.65354   0.29359   0.00000  Uiso   1.00
C16    C     0.26024   0.67015   0.31783   0.00000  Uiso   1.00
H17    H     0.27179   0.63483   0.37271   0.00000  Uiso   1.00
C18    C     0.32471   0.67732   0.26746   0.00000  Uiso   1.00
H19    H     0.38557   0.64653   0.28431   0.00000  Uiso   1.00
C20    C     0.27886   0.68608   0.28037   0.00000  Uiso   1.00
C21    C     0.34837   0.68950   0.22700   0.00000  Uiso   1.00
O22    O     0.24947   0.70944   0.25742   0.00000  Uiso   1.00
N23    N     0.33323   0.71539   0.20215   0.00000  Uiso   1.00
C24    C     0.36027   0.73147   0.16659   0.00000  Uiso   1.00
H25    H     0.38459   0.75163   0.18107   0.00000  Uiso   1.00
C26    C     0.03604   0.97124   0.03633   0.00000  Uiso   1.00
C27    C     0.01876   0.93820   0.05122   0.00000  Uiso   1.00
C28    C     0.07969   0.98289   0.04991   0.00000  Uiso   1.00
C29    C     0.04564   0.91627   0.07819   0.00000  Uiso   1.00
H30    H     0.98441   0.92938   0.04149   0.00000  Uiso   1.00
C31    C     0.10663   0.96096   0.07691   0.00000  Uiso   1.00
H32    H     0.09286   0.00898   0.03929   0.00000  Uiso   1.00
C33    C     0.08975   0.92750   0.09082   0.00000  Uiso   1.00
H34    H     0.03226   0.89035   0.08920   0.00000  Uiso   1.00
H35    H     0.14085   0.96992   0.08694   0.00000  Uiso   1.00
C36    C     0.11791   0.09572   0.88214   0.00000  Uiso   1.00
C37    C     0.14135   0.11561   0.85977   0.00000  Uiso   1.00
C38    C     0.83091   0.86028   0.83347   0.00000  Uiso   1.00
C39    C     0.79512   0.84063   0.85256   0.00000  Uiso   1.00
C40    C     0.83998   0.85647   0.78917   0.00000  Uiso   1.00
C41    C     0.76822   0.81646   0.82811   0.00000  Uiso   1.00
H42    H     0.78804   0.84427   0.88714   0.00000  Uiso   1.00
C43    C     0.81360   0.83269   0.76412   0.00000  Uiso   1.00
H44    H     0.86770   0.87194   0.77413   0.00000  Uiso   1.00
C45    C     0.77828   0.81216   0.78303   0.00000  Uiso   1.00
O46    O     0.75429   0.78896   0.75484   0.00000  Uiso   1.00
H47    H     0.61881   0.67676   0.78079   0.00000  Uiso   1.00
C48    C     0.72980   0.79902   0.85250   0.00000  Uiso   1.00
H49    H     0.72334   0.80861   0.88542   0.00000  Uiso   1.00
N50    N     0.70553   0.22784   0.16248   0.00000  Uiso   1.00
C51    C     0.67304   0.24890   0.13590   0.00000  Uiso   1.00
H52    H     0.69327   0.26941   0.11716   0.00000  Uiso   1.00
Ag53   Ag    0.72145   0.74668   0.78097   0.00000  Uiso   1.00
O54    O     0.21483   0.67844   0.32986   0.00000  Uiso   1.00
O55    O     0.17727   0.82874   0.28041   0.00000  Uiso   1.00
C56    C     0.38812   0.70401   0.13994   0.00000  Uiso   1.00
C57    C     0.41664   0.72460   0.10574   0.00000  Uiso   1.00
C58    C     0.38575   0.74830   0.07660   0.00000  Uiso   1.00
C59    C     0.35535   0.77383   0.10382   0.00000  Uiso   1.00
H60    H     0.41244   0.68887   0.16144   0.00000  Uiso   1.00
H61    H     0.36432   0.68451   0.12355   0.00000  Uiso   1.00
H62    H     0.43571   0.70480   0.08497   0.00000  Uiso   1.00
H63    H     0.44243   0.74212   0.12270   0.00000  Uiso   1.00
H64    H     0.36310   0.73049   0.05639   0.00000  Uiso   1.00
H65    H     0.40677   0.76375   1.05550   0.00000  Uiso   1.00
H66    H     0.33207   0.78884   0.08120   0.00000  Uiso   1.00
H67    H     0.37741   0.79351   0.12198   0.00000  Uiso   1.00
H68    H     0.20549   0.66529   0.35767   0.00000  Uiso   1.00
H69    H     0.15074   0.84495   0.29009   0.00000  Uiso   1.00
Si70   Si    0.50000   0.50000   0.50000   0.00000  Uiso   1.00
Si71   Si    0.00000   0.00000   0.00000   0.00000  Uiso   1.00
loop_
_geom_bond_atom_site_label_1
_geom_bond_atom_site_label_2
_geom_bond_distance
_geom_bond_site_symmetry_2
_ccdc_geom_bond_type
C1     Si70    1.849   .     S
C1     C2      1.389   .     A
C1     C3      1.390   .     A
C2     C4      1.387   .     A
C2     H5      1.081   .     S
C3     C6      1.389   .     A
C3     H7      1.081   .     S
C4     C8      1.388   .     A
C4     H9      1.082   .     S
C6     C8      1.389   .     A
C6     H10     1.082   .     S
C8     C11     1.437   4_566 S
C11    C12     1.206   .     T
C11    C8      1.437   4_566 S
C12    C13     1.437   2_665 S
C13    C14     1.383   .     S
C13    C15     1.386   .     D
C13    C12     1.437   2_665 S
C14    C16     1.387   .     D
C14    H17     1.082   .     S
C15    C18     1.394   .     S
C15    H19     1.082   .     S
C16    C20     1.391   .     S
C16    O54     1.390   .     S
C18    C20     1.414   .     D
C18    C21     1.478   .     S
C20    O22     1.394   .     S
C21    N23     1.293   .     D
C21    H47     1.080   3_656 S
O22    Ag53    1.986   3_656 S
N23    C24     1.459   .     S
N23    Ag53    2.015   3_656 S
C24    H25     1.111   .     S
C24    C51     1.521   2_665 S
C24    C56     1.524   .     S
C26    C27     1.389   .     A
C26    C28     1.390   .     A
C26    Si71    1.849   1_565 S
C27    C29     1.387   .     A
C27    H30     1.081   1_455 S
C28    C31     1.389   .     A
C28    H32     1.081   1_565 S
C29    C33     1.389   .     A
C29    H34     1.082   .     S
H30    C27     1.081   1_655 S
C31    C33     1.389   .     A
C31    H35     1.082   .     S
H32    C28     1.081   1_545 S
C33    C36     1.437   4_566 S
C36    C37     1.206   .     T
C36    C33     1.437   4_566 S
C37    C38     1.437   2_665 S
C38    C39     1.386   .     S
C38    C40     1.383   .     D
C38    C37     1.437   2_665 S
C39    C41     1.394   .     D
C39    H42     1.082   .     S
C40    C43     1.387   .     S
C40    H44     1.082   .     S
C41    C45     1.414   .     S
C41    C48     1.478   .     S
C43    C45     1.391   .     D
C43    O55     1.390   3_656 S
C45    O46     1.394   .     S
O46    Ag53    1.986   .     S
H47    C21     1.080   3_656 S
C48    H49     1.080   .     S
C48    N50     1.293   4_566 D
N50    C51     1.459   .     S
N50    C48     1.293   4_566 D
N50    Ag53    2.015   4_566 S
C51    H52     1.111   .     S
C51    C24     1.521   2_665 S
C51    C59     1.524   2_665 S
Ag53   N23     2.015   3_656 S
Ag53   N50     2.015   4_566 S
Ag53   O22     1.986   3_656 S
O54    H68     1.012   .     S
O55    C43     1.390   3_656 S
O55    H69     1.012   .     S
C56    C57     1.528   .     S
C56    H60     1.108   .     S
C56    H61     1.110   .     S
C57    C58     1.529   .     S
C57    H62     1.110   .     S
C57    H63     1.111   .     S
C58    C59     1.528   .     S
C58    H64     1.110   .     S
C58    H65     1.050   1_554 A
C59    C51     1.524   2_665 S
C59    H66     1.108   .     S
C59    H67     1.110   .     S
H65    C58     1.050   1_556 A
Si70   C1      1.849   2_665 S
Si70   C1      1.849   3_656 S
Si70   C1      1.849   4_566 S
Si71   C26     1.849   1_545 S
Si71   C26     1.849   2_565 S
Si71   C26     1.849   3_545 S
Si71   C26     1.849   4_565 S
