data_dAg08-ch3
_audit_creation_date              2025-09-02
_audit_creation_method            'Materials Studio'
_symmetry_space_group_name_H-M    'P-4N2'
_symmetry_Int_Tables_number       118
_symmetry_cell_setting            tetragonal
loop_
_symmetry_equiv_pos_as_xyz
  x,y,z
  -x,-y,z
  y,-x,-z
  -y,x,-z
  x+1/2,-y+1/2,z+1/2
  -x+1/2,y+1/2,z+1/2
  y+1/2,x+1/2,-z+1/2
  -y+1/2,-x+1/2,-z+1/2
_cell_length_a                    15.6067
_cell_length_b                    15.6067
_cell_length_c                    18.7118
_cell_angle_alpha                 90.0000
_cell_angle_beta                  90.0000
_cell_angle_gamma                 90.0000
loop_
_atom_site_label
_atom_site_type_symbol
_atom_site_fract_x
_atom_site_fract_y
_atom_site_fract_z
_atom_site_U_iso_or_equiv
_atom_site_adp_type
_atom_site_occupancy
C1     C     0.53525   0.66006   0.56556   0.00000  Uiso   1.00
C2     C     0.58344   0.71588   0.60696   0.00000  Uiso   1.00
H3     H     0.47857   0.68317   0.53842   0.00000  Uiso   1.00
C4     C     0.76273   0.56128   0.66106   0.00000  Uiso   1.00
N5     N     0.81459   0.59685   0.70572   0.00000  Uiso   1.00
H6     H     0.77713   0.49713   0.64240   0.00000  Uiso   1.00
C7     C     0.88829   0.54949   0.73262   0.00000  Uiso   1.00
H8     H     0.92078   0.51484   0.68831   0.00000  Uiso   1.00
C9     C     0.86779   0.04659   0.09437   0.00000  Uiso   1.00
C10    C     0.81694   0.10161   0.13478   0.00000  Uiso   1.00
H11    H     0.84883   0.98030   0.08809   0.00000  Uiso   1.00
H12    H     0.86634   0.50218   0.77302   0.00000  Uiso   1.00
C13    C     0.55997   0.57527   0.55861   0.00000  Uiso   1.00
C14    C     0.65719   0.68840   0.64201   0.00000  Uiso   1.00
O15    O     0.70088   0.75129   0.68062   0.00000  Uiso   1.00
C16    C     0.55616   0.80709   0.61327   0.00000  Uiso   1.00
H17    H     0.55494   0.83690   0.55943   0.00000  Uiso   1.00
H18    H     0.60151   0.84294   0.64779   0.00000  Uiso   1.00
H19    H     0.49113   0.81013   0.63709   0.00000  Uiso   1.00
Si20   Si    0.00000   0.00000   0.00000   0.00000  Uiso   1.00
Ag21   Ag    0.78780   0.71220   0.75000   0.00000  Uiso   1.00
loop_
_geom_bond_atom_site_label_1
_geom_bond_atom_site_label_2
_geom_bond_distance
_geom_bond_site_symmetry_2
_ccdc_geom_bond_type
C1     C13     1.385   .     A
C1     C2      1.387   .     A
C1     H3      1.082   .     S
C2     C14     1.392   .     A
C2     C16     1.491   .     S
C4     N5      1.289   .     D
C4     H6      1.084   .     S
C4     C10     1.478   6_655 S
N5     Ag21    2.025   .     S
N5     C7      1.457   .     S
C7     H8      1.112   .     S
C7     C7      1.520   8_666 S
C7     H12     1.111   .     S
C9     C13     1.385   6_644 A
C9     C10     1.392   .     A
C9     H11     1.082   1_545 S
C10    C14     1.420   6_644 A
C10    C4      1.478   6_644 S
H11    C9      1.082   1_565 S
C13    C9      1.385   6_655 A
C13    Si20    1.860   5     S
C14    C10     1.420   6_655 A
C14    O15     1.397   .     S
O15    Ag21    1.974   .     S
C16    H17     1.110   .     S
C16    H18     1.110   .     S
C16    H19     1.110   .     S
Si20   C13     1.860   5_454 S
Si20   C13     1.860   6_544 S
Si20   C13     1.860   8     S
Si20   C13     1.860   7_445 S
Ag21   N5      2.025   8_666 S
Ag21   O15     1.974   8_666 S
