data_dAg04-nh2
_audit_creation_date              2025-09-02
_audit_creation_method            'Materials Studio'
_symmetry_space_group_name_H-M    'P-4N2'
_symmetry_Int_Tables_number       118
_symmetry_cell_setting            tetragonal
loop_
_symmetry_equiv_pos_as_xyz
  x,y,z
  -x,-y,z
  y,-x,-z
  -y,x,-z
  x+1/2,-y+1/2,z+1/2
  -x+1/2,y+1/2,z+1/2
  y+1/2,x+1/2,-z+1/2
  -y+1/2,-x+1/2,-z+1/2
_cell_length_a                    16.6802
_cell_length_b                    16.6802
_cell_length_c                    35.6111
_cell_angle_alpha                 90.0000
_cell_angle_beta                  90.0000
_cell_angle_gamma                 90.0000
loop_
_atom_site_label
_atom_site_type_symbol
_atom_site_fract_x
_atom_site_fract_y
_atom_site_fract_z
_atom_site_U_iso_or_equiv
_atom_site_adp_type
_atom_site_occupancy
C1     C     0.50547   0.60670   0.55028   0.00000  Uiso   1.00
C2     C     0.54521   0.65019   0.57768   0.00000  Uiso   1.00
H3     H     0.44079   0.61075   0.54845   0.00000  Uiso   1.00
H4     H     0.51096   0.68721   0.59674   0.00000  Uiso   1.00
C5     C     0.35212   0.73355   0.36829   0.00000  Uiso   1.00
C6     C     0.31898   0.76706   0.33598   0.00000  Uiso   1.00
H7     H     0.40788   0.75737   0.37892   0.00000  Uiso   1.00
C8     C     0.86958   0.04893   0.03058   0.00000  Uiso   1.00
C9     C     0.82999   0.09218   0.05827   0.00000  Uiso   1.00
H10    H     0.83534   1.00776   0.01345   0.00000  Uiso   1.00
H11    H     0.76591   0.08544   0.06146   0.00000  Uiso   1.00
C12    C     0.74509   0.86209   0.87205   0.00000  Uiso   1.00
C13    C     0.71048   0.82867   0.84031   0.00000  Uiso   1.00
H14    H     0.71584   0.91189   0.88576   0.00000  Uiso   1.00
C15    C     0.86069   0.66175   0.82090   0.00000  Uiso   1.00
N16    N     0.85584   0.64177   0.78595   0.00000  Uiso   1.00
H17    H     0.90040   0.62867   0.83932   0.00000  Uiso   1.00
C18    C     0.90261   0.57587   0.77018   0.00000  Uiso   1.00
H19    H     0.86575   0.52035   0.77022   0.00000  Uiso   1.00
H20    H     0.95792   0.56538   0.78690   0.00000  Uiso   1.00
C21    C     0.54729   0.55539   0.52621   0.00000  Uiso   1.00
C22    C     0.62762   0.64247   0.58235   0.00000  Uiso   1.00
C23    C     0.31695   0.66782   0.38594   0.00000  Uiso   1.00
C24    C     0.24754   0.73395   0.32144   0.00000  Uiso   1.00
O25    O     0.21033   0.76102   0.28887   0.00000  Uiso   1.00
N26    N     0.63741   0.86057   0.82605   0.00000  Uiso   1.00
H27    H     0.61171   0.83640   0.80184   0.00000  Uiso   1.00
H28    H     0.60923   0.90829   0.83966   0.00000  Uiso   1.00
C29    C     0.50000   0.50000   0.50000   0.00000  Uiso   1.00
Ag30   Ag    0.78991   0.71009   0.75000   0.00000  Uiso   1.00
loop_
_geom_bond_atom_site_label_1
_geom_bond_atom_site_label_2
_geom_bond_distance
_geom_bond_site_symmetry_2
_ccdc_geom_bond_type
C1     C21     1.398   .     A
C1     C2      1.385   .     A
C1     H3      1.083   .     S
C2     C22     1.391   .     A
C2     H4      1.081   .     S
C5     C23     1.393   .     A
C5     C6      1.394   .     A
C5     H7      1.080   .     S
C6     C24     1.412   .     A
C6     C15     1.477   5_464 S
C8     C21     1.400   6_644 A
C8     C9      1.389   .     A
C8     H10     1.082   1_545 S
C9     C22     1.392   6_644 A
C9     H11     1.081   .     S
H10    C8      1.082   1_565 S
C12    C23     1.389   5_565 A
C12    C13     1.386   .     A
C12    H14     1.080   .     S
C13    C24     1.387   5_565 A
C13    N26     1.424   .     S
C15    C6      1.477   5_565 S
C15    N16     1.291   .     D
C15    H17     1.083   .     S
N16    Ag30    2.036   .     S
N16    C18     1.460   .     S
C18    H19     1.112   .     S
C18    H20     1.112   .     S
C18    C18     1.524   8_666 S
C21    C29     1.532   .     S
C21    C8      1.400   6_655 A
C22    C9      1.392   6_655 A
C22    C23     1.478   3_566 S
C23    C12     1.389   5_464 A
C23    C22     1.478   4_656 S
C24    C13     1.387   5_464 A
C24    O25     1.391   .     S
O25    Ag30    1.978   4_656 S
N26    H27     1.044   .     S
N26    H28     1.044   .     S
C29    C21     1.532   2_665 S
C29    C21     1.532   3_566 S
C29    C21     1.532   4_656 S
Ag30   O25     1.978   5_565 S
Ag30   O25     1.978   3_566 S
Ag30   N16     2.036   8_666 S
