data_dAg09-f
_audit_creation_date              2025-09-02
_audit_creation_method            'Materials Studio'
_symmetry_space_group_name_H-M    'P-4N2'
_symmetry_Int_Tables_number       118
_symmetry_cell_setting            tetragonal
loop_
_symmetry_equiv_pos_as_xyz
  x,y,z
  -x,-y,z
  y,-x,-z
  -y,x,-z
  x+1/2,-y+1/2,z+1/2
  -x+1/2,y+1/2,z+1/2
  y+1/2,x+1/2,-z+1/2
  -y+1/2,-x+1/2,-z+1/2
_cell_length_a                    32.0012
_cell_length_b                    32.0012
_cell_length_c                    15.6794
_cell_angle_alpha                 90.0000
_cell_angle_beta                  90.0000
_cell_angle_gamma                 90.0000
loop_
_atom_site_label
_atom_site_type_symbol
_atom_site_fract_x
_atom_site_fract_y
_atom_site_fract_z
_atom_site_U_iso_or_equiv
_atom_site_adp_type
_atom_site_occupancy
C1     C     0.54322   0.40203   0.40901   0.00000  Uiso   1.00
C2     C     0.56959   0.37429   0.36736   0.00000  Uiso   1.00
H3     H     0.51989   0.39079   0.45351   0.00000  Uiso   1.00
H4     H     0.56681   0.34124   0.38034   0.00000  Uiso   1.00
C5     C     0.62146   0.31770   0.26383   0.00000  Uiso   1.00
C6     C     0.65102   0.28881   0.23579   0.00000  Uiso   1.00
H7     H     0.59007   0.30709   0.27684   0.00000  Uiso   1.00
C8     C     0.07790   0.04026   0.84131   0.00000  Uiso   1.00
C9     C     0.10428   0.06798   0.79930   0.00000  Uiso   1.00
H10    H     0.08138   0.00690   0.83251   0.00000  Uiso   1.00
H11    H     0.12787   0.05591   0.75660   0.00000  Uiso   1.00
C12    C     0.17157   0.12682   0.75470   0.00000  Uiso   1.00
C13    C     0.20117   0.15496   0.72536   0.00000  Uiso   1.00
H14    H     0.18048   0.09459   0.76364   0.00000  Uiso   1.00
C15    C     0.13548   0.25417   0.72246   0.00000  Uiso   1.00
N16    N     0.15997   0.28620   0.72538   0.00000  Uiso   1.00
H17    H     0.10213   0.25889   0.71560   0.00000  Uiso   1.00
C18    C     0.14410   0.32892   0.72100   0.00000  Uiso   1.00
H19    H     0.11084   0.33029   0.74124   0.00000  Uiso   1.00
H20    H     0.14683   0.34053   0.65440   0.00000  Uiso   1.00
C21    C     0.54777   0.44478   0.39729   0.00000  Uiso   1.00
C22    C     0.60090   0.38904   0.31320   0.00000  Uiso   1.00
C23    C     0.63155   0.35968   0.27557   0.00000  Uiso   1.00
C24    C     0.69193   0.30284   0.21790   0.00000  Uiso   1.00
O25    O     0.72421   0.27673   0.19157   0.00000  Uiso   1.00
C26    C     0.47762   0.52577   0.45059   0.00000  Uiso   1.00
O27    O     0.50342   0.54950   0.50018   0.00000  Uiso   1.00
F28    F     0.24024   0.14139   0.70686   0.00000  Uiso   1.00
Ag29   Ag    0.22202   0.27798   0.75000   0.00000  Uiso   1.00
O30    O     0.50000   0.50000   0.39808   0.00000  Uiso   1.00
loop_
_geom_bond_atom_site_label_1
_geom_bond_atom_site_label_2
_geom_bond_distance
_geom_bond_site_symmetry_2
_ccdc_geom_bond_type
C1     C21     1.388   .     A
C1     C2      1.388   .     A
C1     H3      1.083   .     S
C2     C22     1.396   .     A
C2     H4      1.081   .     S
C5     C23     1.394   .     A
C5     C6      1.394   .     A
C5     H7      1.080   .     S
C6     C24     1.412   .     A
C6     C15     1.477   5_554 S
C8     C21     1.389   5_455 A
C8     C9      1.390   .     A
C8     H10     1.082   .     S
C9     C22     1.397   5_455 A
C9     H11     1.081   .     S
C12    C23     1.391   5_455 A
C12    C13     1.386   .     A
C12    H14     1.079   .     S
C13    C24     1.387   5_455 A
C13    F28     1.355   .     S
C15    N16     1.291   .     D
C15    H17     1.083   .     S
C15    C6      1.477   5_455 S
N16    Ag29    2.040   .     S
N16    C18     1.460   .     S
C18    H19     1.112   .     S
C18    H20     1.112   .     S
C18    C18     1.522   8_556 S
C21    C8      1.389   5_554 A
C21    C26     1.499   2_665 S
C22    C9      1.397   5_554 A
C22    C23     1.481   .     S
C23    C12     1.391   5_554 A
C24    C13     1.387   5_554 A
C24    O25     1.391   .     S
O25    Ag29    1.977   4_656 S
C26    O30     1.368   .     S
C26    O27     1.364   4_656 S
C26    C21     1.499   2_665 S
O27    C26     1.364   3_566 S
Ag29   N16     2.040   8_556 S
Ag29   O25     1.977   3_566 S
Ag29   O25     1.977   5_455 S
O30    C26     1.368   2_665 S
