data_dAg02-nh2
_audit_creation_date              2025-09-02
_audit_creation_method            'Materials Studio'
_symmetry_space_group_name_H-M    'P222'
_symmetry_Int_Tables_number       16
_symmetry_cell_setting            orthorhombic
loop_
_symmetry_equiv_pos_as_xyz
  x,y,z
  -x,-y,z
  -x,y,-z
  x,-y,-z
_cell_length_a                    28.7688
_cell_length_b                    36.6147
_cell_length_c                    30.6100
_cell_angle_alpha                 90.0000
_cell_angle_beta                  90.0000
_cell_angle_gamma                 90.0000
loop_
_atom_site_label
_atom_site_type_symbol
_atom_site_fract_x
_atom_site_fract_y
_atom_site_fract_z
_atom_site_U_iso_or_equiv
_atom_site_adp_type
_atom_site_occupancy
C1     C     0.53598   0.52882   0.53627   0.00000  Uiso   1.00
C2     C     0.51870   0.56199   0.55117   0.00000  Uiso   1.00
C3     C     0.57940   0.51690   0.55015   0.00000  Uiso   1.00
C4     C     0.54530   0.58371   0.57862   0.00000  Uiso   1.00
H5     H     0.48451   0.57100   0.54120   0.00000  Uiso   1.00
C6     C     0.60605   0.53863   0.57763   0.00000  Uiso   1.00
H7     H     0.59254   0.49070   0.53950   0.00000  Uiso   1.00
C8     C     0.58911   0.57215   0.59171   0.00000  Uiso   1.00
H9     H     0.53188   0.60970   0.58974   0.00000  Uiso   1.00
H10    H     0.64003   0.52942   0.58801   0.00000  Uiso   1.00
C11    C     0.61686   0.40500   0.38044   0.00000  Uiso   1.00
C12    C     0.64004   0.38550   0.35732   0.00000  Uiso   1.00
C13    C     0.33244   0.63807   0.33012   0.00000  Uiso   1.00
C14    C     0.28702   0.64594   0.34148   0.00000  Uiso   1.00
C15    C     0.35138   0.65305   0.29253   0.00000  Uiso   1.00
C16    C     0.26078   0.66913   0.31556   0.00000  Uiso   1.00
H17    H     0.27207   0.63411   0.37066   0.00000  Uiso   1.00
C18    C     0.32573   0.67658   0.26603   0.00000  Uiso   1.00
H19    H     0.38675   0.64621   0.28372   0.00000  Uiso   1.00
C20    C     0.27963   0.68506   0.27833   0.00000  Uiso   1.00
C21    C     0.34961   0.68877   0.22581   0.00000  Uiso   1.00
O22    O     0.25021   0.70811   0.25495   0.00000  Uiso   1.00
N23    N     0.33443   0.71465   0.20087   0.00000  Uiso   1.00
C24    C     0.36158   0.73094   0.16562   0.00000  Uiso   1.00
H25    H     0.38576   0.75120   0.18022   0.00000  Uiso   1.00
C26    C     0.03603   0.97109   0.03615   0.00000  Uiso   1.00
C27    C     0.01884   0.93783   0.05084   0.00000  Uiso   1.00
C28    C     0.07967   0.98280   0.04969   0.00000  Uiso   1.00
C29    C     0.04580   0.91574   0.07755   0.00000  Uiso   1.00
H30    H     0.98452   0.92895   0.04111   0.00000  Uiso   1.00
C31    C     0.10668   0.96071   0.07644   0.00000  Uiso   1.00
H32    H     0.09278   0.00905   0.03921   0.00000  Uiso   1.00
C33    C     0.08989   0.92703   0.09014   0.00000  Uiso   1.00
H34    H     0.03249   0.88963   0.08839   0.00000  Uiso   1.00
H35    H     0.14088   0.96971   0.08644   0.00000  Uiso   1.00
C36    C     0.11814   0.09634   0.88308   0.00000  Uiso   1.00
C37    C     0.14168   0.11632   0.86089   0.00000  Uiso   1.00
C38    C     0.83047   0.85952   0.83475   0.00000  Uiso   1.00
C39    C     0.79440   0.84007   0.85372   0.00000  Uiso   1.00
C40    C     0.83968   0.85550   0.79068   0.00000  Uiso   1.00
C41    C     0.76738   0.81588   0.82938   0.00000  Uiso   1.00
H42    H     0.78720   0.84389   0.88812   0.00000  Uiso   1.00
C43    C     0.81319   0.83172   0.76577   0.00000  Uiso   1.00
H44    H     0.86762   0.87082   0.77572   0.00000  Uiso   1.00
C45    C     0.77759   0.81138   0.78454   0.00000  Uiso   1.00
O46    O     0.75352   0.78816   0.75645   0.00000  Uiso   1.00
H47    H     0.61742   0.67612   0.78167   0.00000  Uiso   1.00
C48    C     0.72870   0.79863   0.85357   0.00000  Uiso   1.00
H49    H     0.72214   0.80838   0.88630   0.00000  Uiso   1.00
N50    N     0.70433   0.22829   0.16135   0.00000  Uiso   1.00
C51    C     0.67163   0.24932   0.13496   0.00000  Uiso   1.00
H52    H     0.69170   0.26990   0.11613   0.00000  Uiso   1.00
Ag53   Ag    0.72050   0.74586   0.78259   0.00000  Uiso   1.00
N54    N     0.21406   0.67723   0.32743   0.00000  Uiso   1.00
N55    N     0.17715   0.82757   0.27958   0.00000  Uiso   1.00
C56    C     0.38964   0.70349   0.13911   0.00000  Uiso   1.00
C57    C     0.41823   0.72430   0.10521   0.00000  Uiso   1.00
C58    C     0.38740   0.74813   0.07615   0.00000  Uiso   1.00
C59    C     0.35682   0.77365   0.10323   0.00000  Uiso   1.00
H60    H     0.41389   0.68827   0.16057   0.00000  Uiso   1.00
H61    H     0.36598   0.68389   0.12262   0.00000  Uiso   1.00
H62    H     0.43744   0.70450   0.08453   0.00000  Uiso   1.00
H63    H     0.44389   0.74192   0.12226   0.00000  Uiso   1.00
H64    H     0.36490   0.73025   0.05586   0.00000  Uiso   1.00
H65    H     0.40847   0.76373   1.05527   0.00000  Uiso   1.00
H66    H     0.33362   0.78876   0.08066   0.00000  Uiso   1.00
H67    H     0.37875   0.79339   0.12148   0.00000  Uiso   1.00
H68    H     0.19419   0.69485   0.30820   0.00000  Uiso   1.00
H69    H     0.19944   0.66565   0.35539   0.00000  Uiso   1.00
H70    H     0.19677   0.80954   0.29848   0.00000  Uiso   1.00
H71    H     0.15040   0.84249   0.29414   0.00000  Uiso   1.00
Si72   Si    0.50000   0.50000   0.50000   0.00000  Uiso   1.00
Si73   Si    0.00000   0.00000   0.00000   0.00000  Uiso   1.00
loop_
_geom_bond_atom_site_label_1
_geom_bond_atom_site_label_2
_geom_bond_distance
_geom_bond_site_symmetry_2
_ccdc_geom_bond_type
C1     Si72    1.849   .     S
C1     C2      1.389   .     A
C1     C3      1.390   .     A
C2     C4      1.387   .     A
C2     H5      1.081   .     S
C3     C6      1.389   .     A
C3     H7      1.081   .     S
C4     C8      1.389   .     A
C4     H9      1.082   .     S
C6     C8      1.389   .     A
C6     H10     1.082   .     S
C8     C11     1.437   4_566 S
C11    C12     1.206   .     T
C11    C8      1.437   4_566 S
C12    C13     1.437   2_665 S
C13    C14     1.382   .     S
C13    C15     1.386   .     D
C13    C12     1.437   2_665 S
C14    C16     1.386   .     D
C14    H17     1.082   .     S
C15    C18     1.395   .     S
C15    H19     1.082   .     S
C16    C20     1.390   .     S
C16    N54     1.424   .     S
C18    C20     1.413   .     D
C18    C21     1.479   .     S
C20    O22     1.393   .     S
C21    N23     1.293   .     D
C21    H47     1.080   3_656 S
O22    Ag53    1.985   3_656 S
N23    C24     1.460   .     S
N23    Ag53    2.015   3_656 S
C24    H25     1.111   .     S
C24    C51     1.522   2_665 S
C24    C56     1.523   .     S
C26    C27     1.389   .     A
C26    C28     1.390   .     A
C26    Si73    1.849   1_565 S
C27    C29     1.387   .     A
C27    H30     1.081   1_455 S
C28    C31     1.389   .     A
C28    H32     1.081   1_565 S
C29    C33     1.389   .     A
C29    H34     1.082   .     S
H30    C27     1.081   1_655 S
C31    C33     1.389   .     A
C31    H35     1.082   .     S
H32    C28     1.081   1_545 S
C33    C36     1.437   4_566 S
C36    C37     1.206   .     T
C36    C33     1.437   4_566 S
C37    C38     1.437   2_665 S
C38    C39     1.386   .     S
C38    C40     1.382   .     D
C38    C37     1.437   2_665 S
C39    C41     1.394   .     D
C39    H42     1.082   .     S
C40    C43     1.386   .     S
C40    H44     1.082   .     S
C41    C45     1.413   .     S
C41    C48     1.478   .     S
C43    C45     1.391   .     D
C43    N55     1.424   3_656 S
C45    O46     1.393   .     S
O46    Ag53    1.985   .     S
H47    C21     1.080   3_656 S
C48    H49     1.080   .     S
C48    N50     1.293   4_566 D
N50    C51     1.460   .     S
N50    C48     1.293   4_566 D
N50    Ag53    2.014   4_566 S
C51    H52     1.111   .     S
C51    C24     1.522   2_665 S
C51    C59     1.524   2_665 S
Ag53   N23     2.015   3_656 S
Ag53   N50     2.014   4_566 S
Ag53   O22     1.985   3_656 S
N54    H68     1.044   .     S
N54    H69     1.044   .     S
N55    C43     1.424   3_656 S
N55    H70     1.044   .     S
N55    H71     1.044   .     S
C56    C57     1.528   .     S
C56    H60     1.108   .     S
C56    H61     1.110   .     S
C57    C58     1.530   .     S
C57    H62     1.110   .     S
C57    H63     1.111   .     S
C58    C59     1.528   .     S
C58    H64     1.111   .     S
C58    H65     1.050   1_554 A
C59    C51     1.524   2_665 S
C59    H66     1.108   .     S
C59    H67     1.110   .     S
H65    C58     1.050   1_556 A
Si72   C1      1.849   2_665 S
Si72   C1      1.849   3_656 S
Si72   C1      1.849   4_566 S
Si73   C26     1.849   1_545 S
Si73   C26     1.849   2_565 S
Si73   C26     1.849   3_545 S
Si73   C26     1.849   4_565 S
