data_dAg04-ch3
_audit_creation_date              2025-09-02
_audit_creation_method            'Materials Studio'
_symmetry_space_group_name_H-M    'P-4N2'
_symmetry_Int_Tables_number       118
_symmetry_cell_setting            tetragonal
loop_
_symmetry_equiv_pos_as_xyz
  x,y,z
  -x,-y,z
  y,-x,-z
  -y,x,-z
  x+1/2,-y+1/2,z+1/2
  -x+1/2,y+1/2,z+1/2
  y+1/2,x+1/2,-z+1/2
  -y+1/2,-x+1/2,-z+1/2
_cell_length_a                    16.4800
_cell_length_b                    16.4800
_cell_length_c                    35.7276
_cell_angle_alpha                 90.0000
_cell_angle_beta                  90.0000
_cell_angle_gamma                 90.0000
loop_
_atom_site_label
_atom_site_type_symbol
_atom_site_fract_x
_atom_site_fract_y
_atom_site_fract_z
_atom_site_U_iso_or_equiv
_atom_site_adp_type
_atom_site_occupancy
C1     C     0.50381   0.60771   0.55027   0.00000  Uiso   1.00
C2     C     0.54333   0.65206   0.57769   0.00000  Uiso   1.00
H3     H     0.43827   0.61061   0.54854   0.00000  Uiso   1.00
H4     H     0.50808   0.68860   0.59684   0.00000  Uiso   1.00
C5     C     0.34869   0.73354   0.36835   0.00000  Uiso   1.00
C6     C     0.31552   0.76676   0.33591   0.00000  Uiso   1.00
H7     H     0.40476   0.75821   0.37910   0.00000  Uiso   1.00
C8     C     0.86877   0.05177   0.03038   0.00000  Uiso   1.00
C9     C     0.82941   0.09588   0.05807   0.00000  Uiso   1.00
H10    H     0.83346   1.01093   0.01317   0.00000  Uiso   1.00
H11    H     0.76442   0.09016   0.06119   0.00000  Uiso   1.00
C12    C     0.74117   0.86425   0.87188   0.00000  Uiso   1.00
C13    C     0.70637   0.83104   0.84000   0.00000  Uiso   1.00
H14    H     0.71196   0.91483   0.88559   0.00000  Uiso   1.00
C15    C     0.85764   0.66125   0.82076   0.00000  Uiso   1.00
N16    N     0.85343   0.64188   0.78580   0.00000  Uiso   1.00
H17    H     0.89733   0.62721   0.83914   0.00000  Uiso   1.00
C18    C     0.90112   0.57561   0.76993   0.00000  Uiso   1.00
H19    H     0.86365   0.51954   0.76921   0.00000  Uiso   1.00
H20    H     0.95647   0.56420   0.78692   0.00000  Uiso   1.00
C21    C     0.54696   0.55680   0.52613   0.00000  Uiso   1.00
C22    C     0.62686   0.64562   0.58227   0.00000  Uiso   1.00
C23    C     0.31337   0.66689   0.38594   0.00000  Uiso   1.00
C24    C     0.24374   0.73250   0.32121   0.00000  Uiso   1.00
O25    O     0.20656   0.75928   0.28853   0.00000  Uiso   1.00
C26    C     0.62959   0.86542   0.82467   0.00000  Uiso   1.00
H27    H     0.58242   0.81741   0.82390   0.00000  Uiso   1.00
H28    H     0.64040   0.88811   0.79585   0.00000  Uiso   1.00
H29    H     0.60809   0.91624   0.84247   0.00000  Uiso   1.00
C30    C     0.50000   0.50000   0.50000   0.00000  Uiso   1.00
Ag31   Ag    0.78782   0.71218   0.75000   0.00000  Uiso   1.00
loop_
_geom_bond_atom_site_label_1
_geom_bond_atom_site_label_2
_geom_bond_distance
_geom_bond_site_symmetry_2
_ccdc_geom_bond_type
C1     C21     1.398   .     A
C1     C2      1.385   .     A
C1     H3      1.083   .     S
C2     C22     1.390   .     A
C2     H4      1.081   .     S
C5     C23     1.393   .     A
C5     C6      1.393   .     A
C5     H7      1.080   .     S
C6     C24     1.412   .     A
C6     C15     1.477   5_464 S
C8     C21     1.399   6_644 A
C8     C9      1.389   .     A
C8     H10     1.082   1_545 S
C9     C22     1.392   6_644 A
C9     H11     1.081   .     S
H10    C8      1.082   1_565 S
C12    C23     1.390   5_565 A
C12    C13     1.388   .     A
C12    H14     1.080   .     S
C13    C24     1.388   5_565 A
C13    C26     1.491   .     S
C15    C6      1.477   5_565 S
C15    N16     1.291   .     D
C15    H17     1.083   .     S
N16    Ag31    2.037   .     S
N16    C18     1.460   .     S
C18    H19     1.112   .     S
C18    H20     1.112   .     S
C18    C18     1.524   8_666 S
C21    C30     1.532   .     S
C21    C8      1.399   6_655 A
C22    C9      1.392   6_655 A
C22    C23     1.477   3_566 S
C23    C12     1.390   5_464 A
C23    C22     1.477   4_656 S
C24    C13     1.388   5_464 A
C24    O25     1.391   .     S
O25    Ag31    1.977   4_656 S
C26    H27     1.109   .     S
C26    H28     1.110   .     S
C26    H29     1.110   .     S
C30    C21     1.532   2_665 S
C30    C21     1.532   3_566 S
C30    C21     1.532   4_656 S
Ag31   O25     1.977   5_565 S
Ag31   O25     1.977   3_566 S
Ag31   N16     2.037   8_666 S
