data_dAg08-nh2
_audit_creation_date              2025-09-02
_audit_creation_method            'Materials Studio'
_symmetry_space_group_name_H-M    'P-4N2'
_symmetry_Int_Tables_number       118
_symmetry_cell_setting            tetragonal
loop_
_symmetry_equiv_pos_as_xyz
  x,y,z
  -x,-y,z
  y,-x,-z
  -y,x,-z
  x+1/2,-y+1/2,z+1/2
  -x+1/2,y+1/2,z+1/2
  y+1/2,x+1/2,-z+1/2
  -y+1/2,-x+1/2,-z+1/2
_cell_length_a                    15.6047
_cell_length_b                    15.6047
_cell_length_c                    18.7292
_cell_angle_alpha                 90.0000
_cell_angle_beta                  90.0000
_cell_angle_gamma                 90.0000
loop_
_atom_site_label
_atom_site_type_symbol
_atom_site_fract_x
_atom_site_fract_y
_atom_site_fract_z
_atom_site_U_iso_or_equiv
_atom_site_adp_type
_atom_site_occupancy
C1     C     0.53494   0.65985   0.56599   0.00000  Uiso   1.00
C2     C     0.58286   0.71546   0.60772   0.00000  Uiso   1.00
H3     H     0.47816   0.68292   0.53899   0.00000  Uiso   1.00
C4     C     0.76237   0.56099   0.66156   0.00000  Uiso   1.00
N5     N     0.81430   0.59666   0.70609   0.00000  Uiso   1.00
H6     H     0.77671   0.49676   0.64305   0.00000  Uiso   1.00
C7     C     0.88813   0.54941   0.73290   0.00000  Uiso   1.00
H8     H     0.92036   0.51445   0.68864   0.00000  Uiso   1.00
C9     C     0.86771   0.04652   0.09427   0.00000  Uiso   1.00
C10    C     0.81719   0.10138   0.13507   0.00000  Uiso   1.00
H11    H     0.84856   0.98032   0.08774   0.00000  Uiso   1.00
H12    H     0.86638   0.50236   0.77356   0.00000  Uiso   1.00
C13    C     0.55996   0.57521   0.55864   0.00000  Uiso   1.00
C14    C     0.65659   0.68802   0.64263   0.00000  Uiso   1.00
O15    O     0.69976   0.75098   0.68151   0.00000  Uiso   1.00
N16    N     0.55672   0.80247   0.61462   0.00000  Uiso   1.00
H17    H     0.59251   0.84490   0.64570   0.00000  Uiso   1.00
H18    H     0.50173   0.82431   0.58863   0.00000  Uiso   1.00
Si19   Si    0.00000   0.00000   0.00000   0.00000  Uiso   1.00
Ag20   Ag    0.78773   0.71227   0.75000   0.00000  Uiso   1.00
loop_
_geom_bond_atom_site_label_1
_geom_bond_atom_site_label_2
_geom_bond_distance
_geom_bond_site_symmetry_2
_ccdc_geom_bond_type
C1     C13     1.384   .     A
C1     C2      1.387   .     A
C1     H3      1.082   .     S
C2     C14     1.391   .     A
C2     N16     1.424   .     S
C4     N5      1.289   .     D
C4     H6      1.084   .     S
C4     C10     1.478   6_655 S
N5     Ag20    2.026   .     S
N5     C7      1.457   .     S
C7     H8      1.112   .     S
C7     C7      1.520   8_666 S
C7     H12     1.111   .     S
C9     C13     1.385   6_644 A
C9     C10     1.392   .     A
C9     H11     1.082   1_545 S
C10    C14     1.420   6_644 A
C10    C4      1.478   6_644 S
H11    C9      1.082   1_565 S
C13    C9      1.385   6_655 A
C13    Si19    1.860   5     S
C14    C10     1.420   6_655 A
C14    O15     1.396   .     S
O15    Ag20    1.974   .     S
N16    H17     1.044   .     S
N16    H18     1.044   .     S
Si19   C13     1.860   5_454 S
Si19   C13     1.860   6_544 S
Si19   C13     1.860   8     S
Si19   C13     1.860   7_445 S
Ag20   N5      2.026   8_666 S
Ag20   O15     1.974   8_666 S
