data_dAg09-ch3
_audit_creation_date              2025-09-02
_audit_creation_method            'Materials Studio'
_symmetry_space_group_name_H-M    'P-4N2'
_symmetry_Int_Tables_number       118
_symmetry_cell_setting            tetragonal
loop_
_symmetry_equiv_pos_as_xyz
  x,y,z
  -x,-y,z
  y,-x,-z
  -y,x,-z
  x+1/2,-y+1/2,z+1/2
  -x+1/2,y+1/2,z+1/2
  y+1/2,x+1/2,-z+1/2
  -y+1/2,-x+1/2,-z+1/2
_cell_length_a                    32.0316
_cell_length_b                    32.0316
_cell_length_c                    15.1328
_cell_angle_alpha                 90.0000
_cell_angle_beta                  90.0000
_cell_angle_gamma                 90.0000
loop_
_atom_site_label
_atom_site_type_symbol
_atom_site_fract_x
_atom_site_fract_y
_atom_site_fract_z
_atom_site_U_iso_or_equiv
_atom_site_adp_type
_atom_site_occupancy
C1     C     0.54236   0.40170   0.40624   0.00000  Uiso   1.00
C2     C     0.56861   0.37371   0.36362   0.00000  Uiso   1.00
H3     H     0.51896   0.39072   0.45241   0.00000  Uiso   1.00
H4     H     0.56565   0.34076   0.37753   0.00000  Uiso   1.00
C5     C     0.62056   0.31658   0.25816   0.00000  Uiso   1.00
C6     C     0.65015   0.28744   0.23073   0.00000  Uiso   1.00
H7     H     0.58907   0.30619   0.27104   0.00000  Uiso   1.00
C8     C     0.07746   0.04104   0.83565   0.00000  Uiso   1.00
C9     C     0.10371   0.06901   0.79262   0.00000  Uiso   1.00
H10    H     0.08116   0.00776   0.82620   0.00000  Uiso   1.00
H11    H     0.12743   0.05722   0.74843   0.00000  Uiso   1.00
C12    C     0.17096   0.12825   0.74907   0.00000  Uiso   1.00
C13    C     0.20068   0.15667   0.72017   0.00000  Uiso   1.00
H14    H     0.17977   0.09601   0.75813   0.00000  Uiso   1.00
C15    C     0.13461   0.25555   0.71782   0.00000  Uiso   1.00
N16    N     0.15896   0.28757   0.72295   0.00000  Uiso   1.00
H17    H     0.10133   0.26024   0.70970   0.00000  Uiso   1.00
C18    C     0.14309   0.33027   0.71931   0.00000  Uiso   1.00
H19    H     0.10976   0.33146   0.73967   0.00000  Uiso   1.00
H20    H     0.14609   0.34228   0.65067   0.00000  Uiso   1.00
C21    C     0.54720   0.44435   0.39367   0.00000  Uiso   1.00
C22    C     0.60010   0.38812   0.30763   0.00000  Uiso   1.00
C23    C     0.63077   0.35852   0.26975   0.00000  Uiso   1.00
C24    C     0.69118   0.30120   0.21304   0.00000  Uiso   1.00
O25    O     0.72347   0.27483   0.18730   0.00000  Uiso   1.00
C26    C     0.47790   0.52597   0.44880   0.00000  Uiso   1.00
O27    O     0.50390   0.54941   0.50019   0.00000  Uiso   1.00
C28    C     0.24391   0.14243   0.69972   0.00000  Uiso   1.00
H29    H     0.25142   0.14996   0.62993   0.00000  Uiso   1.00
H30    H     0.24665   0.10822   0.70977   0.00000  Uiso   1.00
H31    H     0.26634   0.15865   0.74381   0.00000  Uiso   1.00
Ag32   Ag    0.22077   0.27923   0.75000   0.00000  Uiso   1.00
O33    O     0.50000   0.50000   0.39438   0.00000  Uiso   1.00
loop_
_geom_bond_atom_site_label_1
_geom_bond_atom_site_label_2
_geom_bond_distance
_geom_bond_site_symmetry_2
_ccdc_geom_bond_type
C1     C21     1.388   .     A
C1     C2      1.388   .     A
C1     H3      1.083   .     S
C2     C22     1.396   .     A
C2     H4      1.081   .     S
C5     C23     1.394   .     A
C5     C6      1.393   .     A
C5     H7      1.080   .     S
C6     C24     1.412   .     A
C6     C15     1.477   5_554 S
C8     C21     1.389   5_455 A
C8     C9      1.391   .     A
C8     H10     1.082   .     S
C9     C22     1.397   5_455 A
C9     H11     1.081   .     S
C12    C23     1.391   5_455 A
C12    C13     1.388   .     A
C12    H14     1.079   .     S
C13    C24     1.388   5_455 A
C13    C28     1.491   .     S
C15    N16     1.291   .     D
C15    H17     1.083   .     S
C15    C6      1.477   5_455 S
N16    Ag32    2.039   .     S
N16    C18     1.460   .     S
C18    H19     1.112   .     S
C18    H20     1.112   .     S
C18    C18     1.523   8_556 S
C21    C8      1.389   5_554 A
C21    C26     1.499   2_665 S
C22    C9      1.397   5_554 A
C22    C23     1.481   .     S
C23    C12     1.391   5_554 A
C24    C13     1.388   5_554 A
C24    O25     1.391   .     S
O25    Ag32    1.976   4_656 S
C26    O33     1.368   .     S
C26    O27     1.364   4_656 S
C26    C21     1.499   2_665 S
O27    C26     1.364   3_566 S
C28    H29     1.110   .     S
C28    H30     1.110   .     S
C28    H31     1.110   .     S
Ag32   N16     2.039   8_556 S
Ag32   O25     1.976   3_566 S
Ag32   O25     1.976   5_455 S
O33    C26     1.368   2_665 S
