data_dAg05-oh
_audit_creation_date              2025-09-02
_audit_creation_method            'Materials Studio'
_symmetry_space_group_name_H-M    'P-4N2'
_symmetry_Int_Tables_number       118
_symmetry_cell_setting            tetragonal
loop_
_symmetry_equiv_pos_as_xyz
  x,y,z
  -x,-y,z
  y,-x,-z
  -y,x,-z
  x+1/2,-y+1/2,z+1/2
  -x+1/2,y+1/2,z+1/2
  y+1/2,x+1/2,-z+1/2
  -y+1/2,-x+1/2,-z+1/2
_cell_length_a                    22.5686
_cell_length_b                    22.5686
_cell_length_c                    20.2433
_cell_angle_alpha                 90.0000
_cell_angle_beta                  90.0000
_cell_angle_gamma                 90.0000
loop_
_atom_site_label
_atom_site_type_symbol
_atom_site_fract_x
_atom_site_fract_y
_atom_site_fract_z
_atom_site_U_iso_or_equiv
_atom_site_adp_type
_atom_site_occupancy
C1     C     0.46681   0.45882   0.54191   0.00000  Uiso   1.00
C2     C     0.43966   0.42528   0.57708   0.00000  Uiso   1.00
C3     C     0.59253   0.61419   0.61965   0.00000  Uiso   1.00
C4     C     0.56770   0.66756   0.63872   0.00000  Uiso   1.00
C5     C     0.64784   0.59804   0.64331   0.00000  Uiso   1.00
C6     C     0.59817   0.70476   0.68124   0.00000  Uiso   1.00
H7     H     0.52429   0.68015   0.62097   0.00000  Uiso   1.00
C8     C     0.67952   0.63495   0.68573   0.00000  Uiso   1.00
H9     H     0.66628   0.55567   0.62901   0.00000  Uiso   1.00
C10    C     0.65419   0.68957   0.70459   0.00000  Uiso   1.00
C11    C     0.73577   0.61044   0.71089   0.00000  Uiso   1.00
O12    O     0.68066   0.72920   0.74839   0.00000  Uiso   1.00
N13    N     0.77612   0.64238   0.73893   0.00000  Uiso   1.00
H14    H     0.74388   0.56384   0.70275   0.00000  Uiso   1.00
C15    C     0.83382   0.62048   0.76048   0.00000  Uiso   1.00
H16    H     0.83364   0.61770   0.81525   0.00000  Uiso   1.00
H17    O     0.42772   0.24208   0.70047   0.00000  Uiso   1.00
C18    C     0.41113   0.95779   0.25829   0.00000  Uiso   1.00
C19    C     0.35033   0.93988   0.23212   0.00000  Uiso   1.00
H20    H     0.40877   0.96339   0.31271   0.00000  Uiso   1.00
H21    H     0.42420   0.00073   0.23591   0.00000  Uiso   1.00
H22    H     0.35136   0.93778   0.17733   0.00000  Uiso   1.00
H23    H     0.31760   0.97364   0.24814   0.00000  Uiso   1.00
H      H     0.40087   0.21911   0.73128   0.00000  Uiso   1.00
C185   C     0.50000   0.50000   0.50000   0.00000  Uiso   1.00
Zn187  Ag    0.23120   0.26880   0.75000   0.00000  Uiso   1.00
loop_
_geom_bond_atom_site_label_1
_geom_bond_atom_site_label_2
_geom_bond_distance
_geom_bond_site_symmetry_2
_ccdc_geom_bond_type
C1     C185    1.464   .     S
C1     C2      1.206   .     T
C2     C3      1.437   2_665 S
C3     C4      1.383   .     S
C3     C5      1.386   .     D
C3     C2      1.437   2_665 S
C4     C6      1.385   .     D
C4     H7      1.082   .     S
C5     C8      1.394   .     S
C5     H9      1.082   .     S
C6     C10     1.393   .     S
C6     H17     1.390   2_665 S
C8     C10     1.412   .     D
C8     C11     1.475   .     S
C10    O12     1.394   .     S
C11    N13     1.293   .     D
C11    H14     1.080   .     S
O12    Zn187   1.990   2_665 S
N13    C15     1.460   .     S
N13    Zn187   2.024   2_665 S
C15    H16     1.111   .     S
C15    C15     1.519   8_666 S
C15    C19     1.524   5_565 S
H17    C6      1.390   2_665 S
H17    H       1.012   .     S
C18    C19     1.525   .     S
C18    C18     1.527   7_455 S
C18    H20     1.110   .     S
C18    H21     1.110   1_565 S
C19    C15     1.524   5_464 S
C19    H22     1.110   .     S
C19    H23     1.110   .     S
H21    C18     1.110   1_545 S
C185   C1      1.464   2_665 S
C185   C1      1.464   3_566 S
C185   C1      1.464   4_656 S
Zn187  O12     1.990   2_665 S
Zn187  O12     1.990   7_446 S
Zn187  N13     2.024   2_665 S
Zn187  N13     2.024   7_446 S
