data_dAg01
_audit_creation_date              2025-09-02
_audit_creation_method            'Materials Studio'
_symmetry_space_group_name_H-M    'P-4N2'
_symmetry_Int_Tables_number       118
_symmetry_cell_setting            tetragonal
loop_
_symmetry_equiv_pos_as_xyz
  x,y,z
  -x,-y,z
  y,-x,-z
  -y,x,-z
  x+1/2,-y+1/2,z+1/2
  -x+1/2,y+1/2,z+1/2
  y+1/2,x+1/2,-z+1/2
  -y+1/2,-x+1/2,-z+1/2
_cell_length_a                    31.9103
_cell_length_b                    31.9103
_cell_length_c                    29.8391
_cell_angle_alpha                 90.0000
_cell_angle_beta                  90.0000
_cell_angle_gamma                 90.0000
loop_
_atom_site_label
_atom_site_type_symbol
_atom_site_fract_x
_atom_site_fract_y
_atom_site_fract_z
_atom_site_U_iso_or_equiv
_atom_site_adp_type
_atom_site_occupancy
C1     C     0.51099   0.55213   0.56272   0.00000  Uiso   1.00
C2     C     0.53609   0.57480   0.59197   0.00000  Uiso   1.00
H3     H     0.47727   0.55529   0.56457   0.00000  Uiso   1.00
H4     H     0.52199   0.59572   0.61618   0.00000  Uiso   1.00
C5     C     0.37290   0.69280   0.31495   0.00000  Uiso   1.00
C6     C     0.34927   0.71819   0.28646   0.00000  Uiso   1.00
H7     H     0.40113   0.70502   0.33012   0.00000  Uiso   1.00
C8     C     0.92769   0.02047   0.03057   0.00000  Uiso   1.00
C9     C     0.90266   0.04323   0.05987   0.00000  Uiso   1.00
H10    H     0.91293   0.99867   0.00782   0.00000  Uiso   1.00
H11    H     0.86897   0.03950   0.05910   0.00000  Uiso   1.00
C12    C     0.82548   0.86458   0.80445   0.00000  Uiso   1.00
C13    C     0.80172   0.84010   0.77575   0.00000  Uiso   1.00
H14    H     0.81626   0.89654   0.81130   0.00000  Uiso   1.00
C15    C     0.86732   0.73983   0.77796   0.00000  Uiso   1.00
N16    N     0.84564   0.70872   0.76283   0.00000  Uiso   1.00
H17    H     0.89951   0.73439   0.78798   0.00000  Uiso   1.00
C18    C     0.86352   0.66660   0.76170   0.00000  Uiso   1.00
H19    H     0.86889   0.65566   0.79659   0.00000  Uiso   1.00
H20    H     0.89406   0.66700   0.74374   0.00000  Uiso   1.00
C21    C     0.52873   0.52531   0.53087   0.00000  Uiso   1.00
C22    C     0.57928   0.57055   0.59039   0.00000  Uiso   1.00
C23    C     0.59429   0.39483   0.37952   0.00000  Uiso   1.00
C24    C     0.61453   0.37335   0.35427   0.00000  Uiso   1.00
C25    C     0.36097   0.65194   0.32427   0.00000  Uiso   1.00
C26    C     0.31251   0.70124   0.26690   0.00000  Uiso   1.00
O27    O     0.28616   0.72288   0.23781   0.00000  Uiso   1.00
H28    H     0.77397   0.85319   0.76036   0.00000  Uiso   1.00
C29    C     0.50000   0.50000   0.50000   0.00000  Uiso   1.00
Ag30   Ag    0.78362   0.71638   0.75000   0.00000  Uiso   1.00
loop_
_geom_bond_atom_site_label_1
_geom_bond_atom_site_label_2
_geom_bond_distance
_geom_bond_site_symmetry_2
_ccdc_geom_bond_type
C1     C21     1.398   .     A
C1     C2      1.388   .     A
C1     H3      1.082   .     S
C2     C22     1.386   .     A
C2     H4      1.082   .     S
C5     C25     1.387   .     A
C5     C6      1.396   .     A
C5     H7      1.081   .     S
C6     C26     1.418   .     A
C6     C15     1.480   5_464 S
C8     C21     1.399   6_644 A
C8     C9      1.389   .     A
C8     H10     1.080   1_545 S
C9     C22     1.386   6_644 A
C9     H11     1.082   .     S
H10    C8      1.080   1_565 S
C12    C25     1.382   5_565 A
C12    C13     1.385   .     A
C12    H14     1.081   .     S
C13    C26     1.389   5_565 A
C13    H28     1.081   .     S
C15    C6      1.480   5_565 S
C15    N16     1.291   .     D
C15    H17     1.084   .     S
N16    Ag30    2.031   .     S
N16    C18     1.461   .     S
C18    H19     1.111   .     S
C18    H20     1.112   .     S
C18    C18     1.528   8_666 S
C21    C29     1.530   .     S
C21    C8      1.399   6_655 A
C22    C9      1.386   6_655 A
C22    C23     1.436   4_656 S
C23    C24     1.206   .     T
C23    C22     1.436   3_566 S
C24    C25     1.437   2_665 S
C25    C12     1.382   5_464 A
C25    C24     1.437   2_665 S
C26    C13     1.389   5_464 A
C26    O27     1.392   .     S
O27    Ag30    1.974   4_656 S
C29    C21     1.530   2_665 S
C29    C21     1.530   3_566 S
C29    C21     1.530   4_656 S
Ag30   O27     1.974   5_565 S
Ag30   O27     1.974   3_566 S
Ag30   N16     2.031   8_666 S
