data_dAg03-nh2
_audit_creation_date              2025-09-02
_audit_creation_method            'Materials Studio'
_symmetry_space_group_name_H-M    'P-4N2'
_symmetry_Int_Tables_number       118
_symmetry_cell_setting            tetragonal
loop_
_symmetry_equiv_pos_as_xyz
  x,y,z
  -x,-y,z
  y,-x,-z
  -y,x,-z
  x+1/2,-y+1/2,z+1/2
  -x+1/2,y+1/2,z+1/2
  y+1/2,x+1/2,-z+1/2
  -y+1/2,-x+1/2,-z+1/2
_cell_length_a                    18.9926
_cell_length_b                    18.9926
_cell_length_c                    34.9381
_cell_angle_alpha                 90.0000
_cell_angle_beta                  90.0000
_cell_angle_gamma                 90.0000
loop_
_atom_site_label
_atom_site_type_symbol
_atom_site_fract_x
_atom_site_fract_y
_atom_site_fract_z
_atom_site_U_iso_or_equiv
_atom_site_adp_type
_atom_site_occupancy
C1     C     0.56934   0.61866   0.53128   0.00000  Uiso   1.00
C2     C     0.61171   0.65244   0.55795   0.00000  Uiso   1.00
H3     H     0.54000   0.64946   0.51067   0.00000  Uiso   1.00
H4     H     0.61579   0.70918   0.55740   0.00000  Uiso   1.00
C5     C     0.38421   0.74408   0.36574   0.00000  Uiso   1.00
C6     C     0.35391   0.77914   0.33482   0.00000  Uiso   1.00
H7     H     0.43537   0.76073   0.37575   0.00000  Uiso   1.00
C8     C     0.89982   0.00693   0.05875   0.00000  Uiso   1.00
C9     C     0.85746   0.04060   0.08535   0.00000  Uiso   1.00
H10    H     0.90566   0.95027   0.05977   0.00000  Uiso   1.00
H11    H     0.83106   0.00969   0.10699   0.00000  Uiso   1.00
C12    C     0.78323   0.83066   0.87183   0.00000  Uiso   1.00
C13    C     0.75177   0.79601   0.84137   0.00000  Uiso   1.00
H14    H     0.75597   0.87408   0.88518   0.00000  Uiso   1.00
C15    C     0.89512   0.66076   0.81989   0.00000  Uiso   1.00
N16    N     0.88773   0.63693   0.78551   0.00000  Uiso   1.00
H17    H     0.93699   0.63986   0.83762   0.00000  Uiso   1.00
C18    C     0.93732   0.58548   0.77005   0.00000  Uiso   1.00
H19    H     0.94016   0.53872   0.78916   0.00000  Uiso   1.00
H20    H     0.99053   0.60967   0.76838   0.00000  Uiso   1.00
C21    C     0.56290   0.54581   0.53189   0.00000  Uiso   1.00
C22    C     0.64796   0.61379   0.58560   0.00000  Uiso   1.00
C23    C     0.35030   0.68830   0.38389   0.00000  Uiso   1.00
C24    C     0.28678   0.75734   0.32199   0.00000  Uiso   1.00
O25    O     0.25175   0.78665   0.29087   0.00000  Uiso   1.00
N26    N     0.68361   0.81695   0.82882   0.00000  Uiso   1.00
H27    H     0.66002   0.79175   0.80558   0.00000  Uiso   1.00
H28    H     0.65687   0.85752   0.84278   0.00000  Uiso   1.00
Si29   Si    0.50000   0.50000   0.50000   0.00000  Uiso   1.00
Ag30   Ag    0.81693   0.68307   0.75000   0.00000  Uiso   1.00
loop_
_geom_bond_atom_site_label_1
_geom_bond_atom_site_label_2
_geom_bond_distance
_geom_bond_site_symmetry_2
_ccdc_geom_bond_type
C1     C21     1.389   .     A
C1     C2      1.388   .     A
C1     H3      1.082   .     S
C2     C22     1.395   .     A
C2     H4      1.081   .     S
C5     C23     1.393   .     A
C5     C6      1.394   .     A
C5     H7      1.080   .     S
C6     C24     1.413   .     A
C6     C15     1.479   5_464 S
C8     C21     1.388   6_644 A
C8     C9      1.386   .     A
C8     H10     1.082   1_545 S
C9     C22     1.394   6_644 A
C9     H11     1.081   .     S
H10    C8      1.082   1_565 S
C12    C23     1.389   5_565 A
C12    C13     1.387   .     A
C12    H14     1.080   .     S
C13    C24     1.388   5_565 A
C13    N26     1.423   .     S
C15    C6      1.479   5_565 S
C15    N16     1.291   .     D
C15    H17     1.084   .     S
N16    Ag30    2.029   .     S
N16    C18     1.461   .     S
C18    H19     1.112   .     S
C18    H20     1.112   .     S
C18    C18     1.529   8_666 S
C21    Si29    1.851   .     S
C21    C8      1.388   6_655 A
C22    C9      1.394   6_655 A
C22    C23     1.479   3_566 S
C23    C12     1.389   5_464 A
C23    C22     1.479   4_656 S
C24    C13     1.388   5_464 A
C24    O25     1.391   .     S
O25    Ag30    1.975   4_656 S
N26    H27     1.044   .     S
N26    H28     1.044   .     S
Si29   C21     1.851   2_665 S
Si29   C21     1.851   3_566 S
Si29   C21     1.851   4_656 S
Ag30   O25     1.975   5_565 S
Ag30   O25     1.975   3_566 S
Ag30   N16     2.029   8_666 S
