data_dAg02-ch3
_audit_creation_date              2025-09-02
_audit_creation_method            'Materials Studio'
_symmetry_space_group_name_H-M    'P222'
_symmetry_Int_Tables_number       16
_symmetry_cell_setting            orthorhombic
loop_
_symmetry_equiv_pos_as_xyz
  x,y,z
  -x,-y,z
  -x,y,-z
  x,-y,-z
_cell_length_a                    28.6730
_cell_length_b                    36.7087
_cell_length_c                    30.4973
_cell_angle_alpha                 90.0000
_cell_angle_beta                  90.0000
_cell_angle_gamma                 90.0000
loop_
_atom_site_label
_atom_site_type_symbol
_atom_site_fract_x
_atom_site_fract_y
_atom_site_fract_z
_atom_site_U_iso_or_equiv
_atom_site_adp_type
_atom_site_occupancy
C1     C     0.53611   0.52875   0.53639   0.00000  Uiso   1.00
C2     C     0.51870   0.56177   0.55146   0.00000  Uiso   1.00
C3     C     0.57972   0.51691   0.55023   0.00000  Uiso   1.00
C4     C     0.54537   0.58344   0.57904   0.00000  Uiso   1.00
H5     H     0.48436   0.57073   0.54152   0.00000  Uiso   1.00
C6     C     0.60645   0.53858   0.57783   0.00000  Uiso   1.00
H7     H     0.59296   0.49082   0.53947   0.00000  Uiso   1.00
C8     C     0.58938   0.57197   0.59207   0.00000  Uiso   1.00
H9     H     0.53184   0.60931   0.59029   0.00000  Uiso   1.00
H10    H     0.64059   0.52944   0.58816   0.00000  Uiso   1.00
C11    C     0.61721   0.40523   0.37997   0.00000  Uiso   1.00
C12    C     0.64042   0.38575   0.35677   0.00000  Uiso   1.00
C13    C     0.33208   0.63782   0.32945   0.00000  Uiso   1.00
C14    C     0.28655   0.64587   0.34087   0.00000  Uiso   1.00
C15    C     0.35118   0.65271   0.29172   0.00000  Uiso   1.00
C16    C     0.26034   0.66913   0.31488   0.00000  Uiso   1.00
H17    H     0.27149   0.63413   0.37017   0.00000  Uiso   1.00
C18    C     0.32560   0.67628   0.26513   0.00000  Uiso   1.00
H19    H     0.38663   0.64576   0.28288   0.00000  Uiso   1.00
C20    C     0.27938   0.68495   0.27746   0.00000  Uiso   1.00
C21    C     0.34967   0.68840   0.22481   0.00000  Uiso   1.00
O22    O     0.25011   0.70804   0.25387   0.00000  Uiso   1.00
N23    N     0.33473   0.71441   0.19992   0.00000  Uiso   1.00
C24    C     0.36231   0.73077   0.16485   0.00000  Uiso   1.00
H25    H     0.38692   0.75053   0.17989   0.00000  Uiso   1.00
C26    C     0.03615   0.97117   0.03629   0.00000  Uiso   1.00
C27    C     0.01884   0.93804   0.05111   0.00000  Uiso   1.00
C28    C     0.07998   0.98281   0.04979   0.00000  Uiso   1.00
C29    C     0.04590   0.91599   0.07790   0.00000  Uiso   1.00
H30    H     0.98437   0.92922   0.04142   0.00000  Uiso   1.00
C31    C     0.10710   0.96075   0.07659   0.00000  Uiso   1.00
H32    H     0.09317   0.00897   0.03921   0.00000  Uiso   1.00
C33    C     0.09020   0.92719   0.09040   0.00000  Uiso   1.00
H34    H     0.03251   0.88998   0.08883   0.00000  Uiso   1.00
H35    H     0.14146   0.96969   0.08653   0.00000  Uiso   1.00
C36    C     0.11859   0.09618   0.88283   0.00000  Uiso   1.00
C37    C     0.14221   0.11618   0.86068   0.00000  Uiso   1.00
C38    C     0.82986   0.85960   0.83458   0.00000  Uiso   1.00
C39    C     0.79355   0.84038   0.85370   0.00000  Uiso   1.00
C40    C     0.83929   0.85526   0.79042   0.00000  Uiso   1.00
C41    C     0.76647   0.81613   0.82941   0.00000  Uiso   1.00
H42    H     0.78620   0.84444   0.88816   0.00000  Uiso   1.00
C43    C     0.81276   0.83141   0.76552   0.00000  Uiso   1.00
H44    H     0.86747   0.87037   0.77538   0.00000  Uiso   1.00
C45    C     0.77685   0.81132   0.78446   0.00000  Uiso   1.00
O46    O     0.75259   0.78806   0.75648   0.00000  Uiso   1.00
H47    H     0.61734   0.67565   0.78273   0.00000  Uiso   1.00
C48    C     0.72754   0.79911   0.85373   0.00000  Uiso   1.00
H49    H     0.72085   0.80906   0.88646   0.00000  Uiso   1.00
N50    N     0.70321   0.22789   0.16103   0.00000  Uiso   1.00
C51    C     0.67055   0.24881   0.13433   0.00000  Uiso   1.00
H52    H     0.69088   0.26890   0.11492   0.00000  Uiso   1.00
Ag53   Ag    0.71997   0.74584   0.78318   0.00000  Uiso   1.00
C54    C     0.21137   0.67776   0.32757   0.00000  Uiso   1.00
C55    C     0.17670   0.82681   0.28201   0.00000  Uiso   1.00
C56    C     0.39001   0.70340   0.13781   0.00000  Uiso   1.00
C57    C     0.41926   0.72428   0.10433   0.00000  Uiso   1.00
C58    C     0.38894   0.74883   0.07552   0.00000  Uiso   1.00
C59    C     0.35855   0.77424   0.10307   0.00000  Uiso   1.00
H60    H     0.41392   0.68762   0.15913   0.00000  Uiso   1.00
H61    H     0.36595   0.68439   0.12078   0.00000  Uiso   1.00
H62    H     0.43823   0.70459   0.08324   0.00000  Uiso   1.00
H63    H     0.44528   0.74129   0.12189   0.00000  Uiso   1.00
H64    H     0.36617   0.73155   0.05466   0.00000  Uiso   1.00
H65    H     0.41050   0.76446   1.05500   0.00000  Uiso   1.00
H66    H     0.33565   0.78987   0.08063   0.00000  Uiso   1.00
H67    H     0.38079   0.79344   0.12188   0.00000  Uiso   1.00
H68    H     0.19050   0.65231   0.32825   0.00000  Uiso   1.00
H69    H     0.19572   0.69693   0.30360   0.00000  Uiso   1.00
H70    H     0.21100   0.69045   0.36059   0.00000  Uiso   1.00
H71    H     0.18079   0.85333   0.29904   0.00000  Uiso   1.00
H72    H     0.20088   0.80667   0.29682   0.00000  Uiso   1.00
H73    H     0.14032   0.81705   0.28601   0.00000  Uiso   1.00
Si74   Si    0.50000   0.50000   0.50000   0.00000  Uiso   1.00
Si75   Si    0.00000   0.00000   0.00000   0.00000  Uiso   1.00
loop_
_geom_bond_atom_site_label_1
_geom_bond_atom_site_label_2
_geom_bond_distance
_geom_bond_site_symmetry_2
_ccdc_geom_bond_type
C1     Si74    1.849   .     S
C1     C2      1.389   .     A
C1     C3      1.390   .     A
C2     C4      1.387   .     A
C2     H5      1.081   .     S
C3     C6      1.389   .     A
C3     H7      1.081   .     S
C4     C8      1.389   .     A
C4     H9      1.082   .     S
C6     C8      1.389   .     A
C6     H10     1.082   .     S
C8     C11     1.437   4_566 S
C11    C12     1.206   .     T
C11    C8      1.437   4_566 S
C12    C13     1.437   2_665 S
C13    C14     1.383   .     S
C13    C15     1.386   .     D
C13    C12     1.437   2_665 S
C14    C16     1.386   .     D
C14    H17     1.082   .     S
C15    C18     1.394   .     S
C15    H19     1.082   .     S
C16    C20     1.392   .     S
C16    C54     1.491   .     S
C18    C20     1.414   .     D
C18    C21     1.479   .     S
C20    O22     1.393   .     S
C21    N23     1.293   .     D
C21    H47     1.080   3_656 S
O22    Ag53    1.985   3_656 S
N23    C24     1.459   .     S
N23    Ag53    2.014   3_656 S
C24    H25     1.111   .     S
C24    C51     1.522   2_665 S
C24    C56     1.523   .     S
C26    C27     1.389   .     A
C26    C28     1.390   .     A
C26    Si75    1.849   1_565 S
C27    C29     1.387   .     A
C27    H30     1.081   1_455 S
C28    C31     1.389   .     A
C28    H32     1.081   1_565 S
C29    C33     1.389   .     A
C29    H34     1.082   .     S
H30    C27     1.081   1_655 S
C31    C33     1.389   .     A
C31    H35     1.082   .     S
H32    C28     1.081   1_545 S
C33    C36     1.437   4_566 S
C36    C37     1.206   .     T
C36    C33     1.437   4_566 S
C37    C38     1.437   2_665 S
C38    C39     1.386   .     S
C38    C40     1.383   .     D
C38    C37     1.437   2_665 S
C39    C41     1.394   .     D
C39    H42     1.082   .     S
C40    C43     1.386   .     S
C40    H44     1.082   .     S
C41    C45     1.414   .     S
C41    C48     1.479   .     S
C43    C45     1.392   .     D
C43    C55     1.491   3_656 S
C45    O46     1.393   .     S
O46    Ag53    1.985   .     S
H47    C21     1.080   3_656 S
C48    H49     1.080   .     S
C48    N50     1.293   4_566 D
N50    C51     1.459   .     S
N50    C48     1.293   4_566 D
N50    Ag53    2.014   4_566 S
C51    H52     1.111   .     S
C51    C24     1.522   2_665 S
C51    C59     1.524   2_665 S
Ag53   N23     2.014   3_656 S
Ag53   N50     2.014   4_566 S
Ag53   O22     1.985   3_656 S
C54    H68     1.110   .     S
C54    H69     1.110   .     S
C54    H70     1.110   .     S
C55    C43     1.491   3_656 S
C55    H71     1.110   .     S
C55    H72     1.110   .     S
C55    H73     1.110   .     S
C56    C57     1.528   .     S
C56    H60     1.108   .     S
C56    H61     1.110   .     S
C57    C58     1.530   .     S
C57    H62     1.110   .     S
C57    H63     1.111   .     S
C58    C59     1.528   .     S
C58    H64     1.111   .     S
C58    H65     1.050   1_554 A
C59    C51     1.524   2_665 S
C59    H66     1.108   .     S
C59    H67     1.110   .     S
H65    C58     1.050   1_556 A
Si74   C1      1.849   2_665 S
Si74   C1      1.849   3_656 S
Si74   C1      1.849   4_566 S
Si75   C26     1.849   1_545 S
Si75   C26     1.849   2_565 S
Si75   C26     1.849   3_545 S
Si75   C26     1.849   4_565 S
