data_dAg09-oh
_audit_creation_date              2025-09-02
_audit_creation_method            'Materials Studio'
_symmetry_space_group_name_H-M    'P-4N2'
_symmetry_Int_Tables_number       118
_symmetry_cell_setting            tetragonal
loop_
_symmetry_equiv_pos_as_xyz
  x,y,z
  -x,-y,z
  y,-x,-z
  -y,x,-z
  x+1/2,-y+1/2,z+1/2
  -x+1/2,y+1/2,z+1/2
  y+1/2,x+1/2,-z+1/2
  -y+1/2,-x+1/2,-z+1/2
_cell_length_a                    32.0379
_cell_length_b                    32.0379
_cell_length_c                    15.4387
_cell_angle_alpha                 90.0000
_cell_angle_beta                  90.0000
_cell_angle_gamma                 90.0000
loop_
_atom_site_label
_atom_site_type_symbol
_atom_site_fract_x
_atom_site_fract_y
_atom_site_fract_z
_atom_site_U_iso_or_equiv
_atom_site_adp_type
_atom_site_occupancy
C1     C     0.54282   0.40202   0.40761   0.00000  Uiso   1.00
C2     C     0.56918   0.37419   0.36571   0.00000  Uiso   1.00
H3     H     0.51934   0.39089   0.45252   0.00000  Uiso   1.00
H4     H     0.56622   0.34120   0.37890   0.00000  Uiso   1.00
C5     C     0.62132   0.31739   0.26197   0.00000  Uiso   1.00
C6     C     0.65088   0.28844   0.23410   0.00000  Uiso   1.00
H7     H     0.58993   0.30685   0.27497   0.00000  Uiso   1.00
C8     C     0.07795   0.04049   0.83939   0.00000  Uiso   1.00
C9     C     0.10431   0.06830   0.79710   0.00000  Uiso   1.00
H10    H     0.08163   0.00718   0.83057   0.00000  Uiso   1.00
H11    H     0.12809   0.05634   0.75411   0.00000  Uiso   1.00
C12    C     0.17146   0.12729   0.75280   0.00000  Uiso   1.00
C13    C     0.20114   0.15543   0.72373   0.00000  Uiso   1.00
H14    H     0.18043   0.09511   0.76164   0.00000  Uiso   1.00
C15    C     0.13536   0.25451   0.72085   0.00000  Uiso   1.00
N16    N     0.15977   0.28653   0.72462   0.00000  Uiso   1.00
H17    H     0.10206   0.25920   0.71344   0.00000  Uiso   1.00
C18    C     0.14390   0.32919   0.72046   0.00000  Uiso   1.00
H19    H     0.11066   0.33049   0.74103   0.00000  Uiso   1.00
H20    H     0.14658   0.34088   0.65287   0.00000  Uiso   1.00
C21    C     0.54759   0.44470   0.39578   0.00000  Uiso   1.00
C22    C     0.60073   0.38878   0.31122   0.00000  Uiso   1.00
C23    C     0.63142   0.35933   0.27361   0.00000  Uiso   1.00
C24    C     0.69181   0.30237   0.21630   0.00000  Uiso   1.00
O25    O     0.72405   0.27617   0.19005   0.00000  Uiso   1.00
C26    C     0.47771   0.52580   0.44981   0.00000  Uiso   1.00
O27    O     0.50355   0.54942   0.50017   0.00000  Uiso   1.00
O28    O     0.24113   0.14129   0.70489   0.00000  Uiso   1.00
H29    H     0.25982   0.16500   0.68555   0.00000  Uiso   1.00
Ag30   Ag    0.22169   0.27831   0.75000   0.00000  Uiso   1.00
O31    O     0.50000   0.50000   0.39647   0.00000  Uiso   1.00
loop_
_geom_bond_atom_site_label_1
_geom_bond_atom_site_label_2
_geom_bond_distance
_geom_bond_site_symmetry_2
_ccdc_geom_bond_type
C1     C21     1.388   .     A
C1     C2      1.388   .     A
C1     H3      1.083   .     S
C2     C22     1.396   .     A
C2     H4      1.081   .     S
C5     C23     1.394   .     A
C5     C6      1.394   .     A
C5     H7      1.080   .     S
C6     C24     1.412   .     A
C6     C15     1.477   5_554 S
C8     C21     1.389   5_455 A
C8     C9      1.391   .     A
C8     H10     1.082   .     S
C9     C22     1.397   5_455 A
C9     H11     1.081   .     S
C12    C23     1.390   5_455 A
C12    C13     1.385   .     A
C12    H14     1.079   .     S
C13    C24     1.389   5_455 A
C13    O28     1.390   .     S
C15    N16     1.291   .     D
C15    H17     1.084   .     S
C15    C6      1.477   5_455 S
N16    Ag30    2.039   .     S
N16    C18     1.460   .     S
C18    H19     1.112   .     S
C18    H20     1.112   .     S
C18    C18     1.523   8_556 S
C21    C8      1.389   5_554 A
C21    C26     1.499   2_665 S
C22    C9      1.397   5_554 A
C22    C23     1.481   .     S
C23    C12     1.390   5_554 A
C24    C13     1.389   5_554 A
C24    O25     1.391   .     S
O25    Ag30    1.977   4_656 S
C26    O31     1.368   .     S
C26    O27     1.364   4_656 S
C26    C21     1.499   2_665 S
O27    C26     1.364   3_566 S
O28    H29     1.012   .     S
Ag30   N16     2.039   8_556 S
Ag30   O25     1.977   3_566 S
Ag30   O25     1.977   5_455 S
O31    C26     1.368   2_665 S
