data_dAg01-f
_audit_creation_date              2025-09-02
_audit_creation_method            'Materials Studio'
_symmetry_space_group_name_H-M    'P-4N2'
_symmetry_Int_Tables_number       118
_symmetry_cell_setting            tetragonal
loop_
_symmetry_equiv_pos_as_xyz
  x,y,z
  -x,-y,z
  y,-x,-z
  -y,x,-z
  x+1/2,-y+1/2,z+1/2
  -x+1/2,y+1/2,z+1/2
  y+1/2,x+1/2,-z+1/2
  -y+1/2,-x+1/2,-z+1/2
_cell_length_a                    31.7972
_cell_length_b                    31.7972
_cell_length_c                    30.0169
_cell_angle_alpha                 90.0000
_cell_angle_beta                  90.0000
_cell_angle_gamma                 90.0000
loop_
_atom_site_label
_atom_site_type_symbol
_atom_site_fract_x
_atom_site_fract_y
_atom_site_fract_z
_atom_site_U_iso_or_equiv
_atom_site_adp_type
_atom_site_occupancy
C1     C     0.51203   0.55227   0.56218   0.00000  Uiso   1.00
C2     C     0.53763   0.57449   0.59131   0.00000  Uiso   1.00
H3     H     0.47827   0.55625   0.56384   0.00000  Uiso   1.00
H4     H     0.52387   0.59591   0.61521   0.00000  Uiso   1.00
C5     C     0.37547   0.69541   0.31544   0.00000  Uiso   1.00
C6     C     0.35202   0.72084   0.28682   0.00000  Uiso   1.00
H7     H     0.40371   0.70767   0.33073   0.00000  Uiso   1.00
C8     C     0.92708   0.01891   0.03067   0.00000  Uiso   1.00
C9     C     0.90155   0.04120   0.05986   0.00000  Uiso   1.00
H10    H     0.91271   0.99658   0.00821   0.00000  Uiso   1.00
H11    H     0.86784   0.03662   0.05931   0.00000  Uiso   1.00
C12    C     0.82784   0.86210   0.80476   0.00000  Uiso   1.00
C13    C     0.80424   0.83762   0.77590   0.00000  Uiso   1.00
H14    H     0.81849   0.89414   0.81162   0.00000  Uiso   1.00
C15    C     0.87023   0.73707   0.77834   0.00000  Uiso   1.00
N16    N     0.84858   0.70589   0.76303   0.00000  Uiso   1.00
H17    H     0.90248   0.73161   0.78849   0.00000  Uiso   1.00
C18    C     0.86649   0.66360   0.76183   0.00000  Uiso   1.00
H19    H     0.87160   0.65246   0.79651   0.00000  Uiso   1.00
H20    H     0.89728   0.66404   0.74425   0.00000  Uiso   1.00
C21    C     0.52931   0.52483   0.53071   0.00000  Uiso   1.00
C22    C     0.58086   0.56916   0.59000   0.00000  Uiso   1.00
C23    C     0.59244   0.39277   0.37999   0.00000  Uiso   1.00
C24    C     0.61238   0.37100   0.35476   0.00000  Uiso   1.00
C25    C     0.36334   0.65445   0.32471   0.00000  Uiso   1.00
C26    C     0.31526   0.70382   0.26709   0.00000  Uiso   1.00
O27    O     0.28913   0.72549   0.23783   0.00000  Uiso   1.00
F28    F     0.76948   0.85410   0.75649   0.00000  Uiso   1.00
C29    C     0.50000   0.50000   0.50000   0.00000  Uiso   1.00
Ag30   Ag    0.78641   0.71359   0.75000   0.00000  Uiso   1.00
loop_
_geom_bond_atom_site_label_1
_geom_bond_atom_site_label_2
_geom_bond_distance
_geom_bond_site_symmetry_2
_ccdc_geom_bond_type
C1     C21     1.398   .     A
C1     C2      1.388   .     A
C1     H3      1.082   .     S
C2     C22     1.386   .     A
C2     H4      1.082   .     S
C5     C25     1.387   .     A
C5     C6      1.396   .     A
C5     H7      1.081   .     S
C6     C26     1.418   .     A
C6     C15     1.480   5_464 S
C8     C21     1.399   6_644 A
C8     C9      1.389   .     A
C8     H10     1.080   1_545 S
C9     C22     1.386   6_644 A
C9     H11     1.082   .     S
H10    C8      1.080   1_565 S
C12    C25     1.382   5_565 A
C12    C13     1.386   .     A
C12    H14     1.081   .     S
C13    C26     1.389   5_565 A
C13    F28     1.355   .     S
C15    C6      1.480   5_565 S
C15    N16     1.292   .     D
C15    H17     1.084   .     S
N16    Ag30    2.030   .     S
N16    C18     1.461   .     S
C18    H19     1.111   .     S
C18    H20     1.112   .     S
C18    C18     1.528   8_666 S
C21    C29     1.530   .     S
C21    C8      1.399   6_655 A
C22    C9      1.386   6_655 A
C22    C23     1.436   4_656 S
C23    C24     1.206   .     T
C23    C22     1.436   3_566 S
C24    C25     1.437   2_665 S
C25    C12     1.382   5_464 A
C25    C24     1.437   2_665 S
C26    C13     1.389   5_464 A
C26    O27     1.392   .     S
O27    Ag30    1.973   4_656 S
C29    C21     1.530   2_665 S
C29    C21     1.530   3_566 S
C29    C21     1.530   4_656 S
Ag30   O27     1.973   5_565 S
Ag30   O27     1.973   3_566 S
Ag30   N16     2.030   8_666 S
