data_dAg02-f
_audit_creation_date              2025-09-02
_audit_creation_method            'Materials Studio'
_symmetry_space_group_name_H-M    'P222'
_symmetry_Int_Tables_number       16
_symmetry_cell_setting            orthorhombic
loop_
_symmetry_equiv_pos_as_xyz
  x,y,z
  -x,-y,z
  -x,y,-z
  x,-y,-z
_cell_length_a                    28.6220
_cell_length_b                    36.8815
_cell_length_c                    30.4104
_cell_angle_alpha                 90.0000
_cell_angle_beta                  90.0000
_cell_angle_gamma                 90.0000
loop_
_atom_site_label
_atom_site_type_symbol
_atom_site_fract_x
_atom_site_fract_y
_atom_site_fract_z
_atom_site_U_iso_or_equiv
_atom_site_adp_type
_atom_site_occupancy
C1     C     0.53609   0.52868   0.53649   0.00000  Uiso   1.00
C2     C     0.51851   0.56151   0.55159   0.00000  Uiso   1.00
C3     C     0.57990   0.51707   0.55027   0.00000  Uiso   1.00
C4     C     0.54522   0.58322   0.57907   0.00000  Uiso   1.00
H5     H     0.48402   0.57028   0.54170   0.00000  Uiso   1.00
C6     C     0.60666   0.53880   0.57778   0.00000  Uiso   1.00
H7     H     0.59328   0.49113   0.53950   0.00000  Uiso   1.00
C8     C     0.58944   0.57201   0.59200   0.00000  Uiso   1.00
H9     H     0.53157   0.60896   0.59031   0.00000  Uiso   1.00
H10    H     0.64097   0.52984   0.58804   0.00000  Uiso   1.00
C11    C     0.61732   0.40508   0.38023   0.00000  Uiso   1.00
C12    C     0.64056   0.38548   0.35721   0.00000  Uiso   1.00
C13    C     0.33190   0.63823   0.33011   0.00000  Uiso   1.00
C14    C     0.28646   0.64646   0.34190   0.00000  Uiso   1.00
C15    C     0.35087   0.65303   0.29220   0.00000  Uiso   1.00
C16    C     0.26030   0.66979   0.31608   0.00000  Uiso   1.00
H17    H     0.27140   0.63481   0.37131   0.00000  Uiso   1.00
C18    C     0.32525   0.67671   0.26578   0.00000  Uiso   1.00
H19    H     0.38624   0.64593   0.28304   0.00000  Uiso   1.00
C20    C     0.27915   0.68557   0.27853   0.00000  Uiso   1.00
C21    C     0.34913   0.68867   0.22519   0.00000  Uiso   1.00
O22    O     0.24979   0.70884   0.25529   0.00000  Uiso   1.00
N23    N     0.33411   0.71455   0.20024   0.00000  Uiso   1.00
C24    C     0.36140   0.73047   0.16460   0.00000  Uiso   1.00
H25    H     0.38618   0.75030   0.17915   0.00000  Uiso   1.00
C26    C     0.03626   0.97131   0.03637   0.00000  Uiso   1.00
C27    C     0.01895   0.93834   0.05127   0.00000  Uiso   1.00
C28    C     0.08022   0.98286   0.04980   0.00000  Uiso   1.00
C29    C     0.04612   0.91638   0.07806   0.00000  Uiso   1.00
H30    H     0.98437   0.92957   0.04163   0.00000  Uiso   1.00
C31    C     0.10746   0.96089   0.07659   0.00000  Uiso   1.00
H32    H     0.09343   0.00889   0.03917   0.00000  Uiso   1.00
C33    C     0.09055   0.92750   0.09048   0.00000  Uiso   1.00
H34    H     0.03272   0.89049   0.08905   0.00000  Uiso   1.00
H35    H     0.14193   0.96976   0.08645   0.00000  Uiso   1.00
C36    C     0.11902   0.09576   0.88272   0.00000  Uiso   1.00
C37    C     0.14269   0.11569   0.86052   0.00000  Uiso   1.00
C38    C     0.82941   0.86014   0.83436   0.00000  Uiso   1.00
C39    C     0.79361   0.84047   0.85368   0.00000  Uiso   1.00
C40    C     0.83840   0.85624   0.78994   0.00000  Uiso   1.00
C41    C     0.76669   0.81615   0.82937   0.00000  Uiso   1.00
H42    H     0.78655   0.84420   0.88836   0.00000  Uiso   1.00
C43    C     0.81198   0.83237   0.76508   0.00000  Uiso   1.00
H44    H     0.86613   0.87168   0.77463   0.00000  Uiso   1.00
C45    C     0.77671   0.81175   0.78416   0.00000  Uiso   1.00
O46    O     0.75273   0.78839   0.75609   0.00000  Uiso   1.00
H47    H     0.61800   0.67579   0.78261   0.00000  Uiso   1.00
C48    C     0.72829   0.79863   0.85398   0.00000  Uiso   1.00
H49    H     0.72177   0.80829   0.88695   0.00000  Uiso   1.00
N50    N     0.70418   0.22837   0.16084   0.00000  Uiso   1.00
C51    C     0.67188   0.24954   0.13401   0.00000  Uiso   1.00
H52    H     0.69254   0.26975   0.11516   0.00000  Uiso   1.00
Zn53   Ag    0.72045   0.74607   0.78266   0.00000  Uiso   1.00
H54    F     0.21585   0.67783   0.32791   0.00000  Uiso   1.00
H55    F     0.17891   0.82858   0.27840   0.00000  Uiso   1.00
C56    C     0.38888   0.70294   0.13765   0.00000  Uiso   1.00
C57    C     0.41772   0.72334   0.10336   0.00000  Uiso   1.00
C58    C     0.38694   0.74738   0.07438   0.00000  Uiso   1.00
C59    C     0.35688   0.77300   0.10192   0.00000  Uiso   1.00
H60    H     0.41315   0.68754   0.15904   0.00000  Uiso   1.00
H61    H     0.36461   0.68378   0.12118   0.00000  Uiso   1.00
H62    H     0.43648   0.70349   0.08235   0.00000  Uiso   1.00
H63    H     0.44398   0.74050   0.12037   0.00000  Uiso   1.00
H64    H     0.36384   0.72992   0.05408   0.00000  Uiso   1.00
H65    H     0.40823   0.76268   1.05325   0.00000  Uiso   1.00
H66    H     0.33365   0.78829   0.07940   0.00000  Uiso   1.00
H67    H     0.37942   0.79233   0.12018   0.00000  Uiso   1.00
Si269  Si    0.50000   0.50000   0.50000   0.00000  Uiso   1.00
Si270  Si    0.00000   0.00000   0.00000   0.00000  Uiso   1.00
loop_
_geom_bond_atom_site_label_1
_geom_bond_atom_site_label_2
_geom_bond_distance
_geom_bond_site_symmetry_2
_ccdc_geom_bond_type
C1     Si269   1.849   .     S
C1     C2      1.389   .     A
C1     C3      1.390   .     A
C2     C4      1.387   .     A
C2     H5      1.081   .     S
C3     C6      1.389   .     A
C3     H7      1.081   .     S
C4     C8      1.388   .     A
C4     H9      1.082   .     S
C6     C8      1.389   .     A
C6     H10     1.082   .     S
C8     C11     1.437   4_566 S
C11    C12     1.206   .     T
C11    C8      1.437   4_566 S
C12    C13     1.437   2_665 S
C13    C14     1.383   .     S
C13    C15     1.387   .     D
C13    C12     1.437   2_665 S
C14    C16     1.385   .     D
C14    H17     1.082   .     S
C15    C18     1.395   .     S
C15    H19     1.082   .     S
C16    C20     1.391   .     S
C16    H54     1.355   .     S
C18    C20     1.414   .     D
C18    C21     1.478   .     S
C20    O22     1.393   .     S
C21    N23     1.293   .     D
C21    H47     1.080   3_656 S
O22    Zn53    1.986   3_656 S
N23    C24     1.459   .     S
N23    Zn53    2.015   3_656 S
C24    H25     1.111   .     S
C24    C51     1.522   2_665 S
C24    C56     1.524   .     S
C26    C27     1.389   .     A
C26    C28     1.390   .     A
C26    Si270   1.849   1_565 S
C27    C29     1.387   .     A
C27    H30     1.081   1_455 S
C28    C31     1.389   .     A
C28    H32     1.081   1_565 S
C29    C33     1.389   .     A
C29    H34     1.082   .     S
H30    C27     1.081   1_655 S
C31    C33     1.389   .     A
C31    H35     1.082   .     S
H32    C28     1.081   1_545 S
C33    C36     1.437   4_566 S
C36    C37     1.206   .     T
C36    C33     1.437   4_566 S
C37    C38     1.437   2_665 S
C38    C39     1.386   .     S
C38    C40     1.383   .     D
C38    C37     1.437   2_665 S
C39    C41     1.395   .     D
C39    H42     1.082   .     S
C40    C43     1.385   .     S
C40    H44     1.082   .     S
C41    C45     1.414   .     S
C41    C48     1.478   .     S
C43    C45     1.391   .     D
C43    H55     1.355   3_656 S
C45    O46     1.394   .     S
O46    Zn53    1.986   .     S
H47    C21     1.080   3_656 S
C48    H49     1.080   .     S
C48    N50     1.293   4_566 D
N50    C51     1.459   .     S
N50    C48     1.293   4_566 D
N50    Zn53    2.015   4_566 S
C51    H52     1.111   .     S
C51    C24     1.522   2_665 S
C51    C59     1.524   2_665 S
Zn53   N23     2.015   3_656 S
Zn53   N50     2.015   4_566 S
Zn53   O22     1.986   3_656 S
H55    C43     1.355   3_656 S
C56    C57     1.528   .     S
C56    H60     1.108   .     S
C56    H61     1.110   .     S
C57    C58     1.529   .     S
C57    H62     1.110   .     S
C57    H63     1.111   .     S
C58    C59     1.528   .     S
C58    H64     1.110   .     S
C58    H65     1.050   1_554 A
C59    C51     1.524   2_665 S
C59    H66     1.109   .     S
C59    H67     1.110   .     S
H65    C58     1.050   1_556 A
Si269  C1      1.849   2_665 S
Si269  C1      1.849   3_656 S
Si269  C1      1.849   4_566 S
Si270  C26     1.849   1_545 S
Si270  C26     1.849   2_565 S
Si270  C26     1.849   3_545 S
Si270  C26     1.849   4_565 S
