data_dAg08-oh
_audit_creation_date              2025-09-02
_audit_creation_method            'Materials Studio'
_symmetry_space_group_name_H-M    'P-4N2'
_symmetry_Int_Tables_number       118
_symmetry_cell_setting            tetragonal
loop_
_symmetry_equiv_pos_as_xyz
  x,y,z
  -x,-y,z
  y,-x,-z
  -y,x,-z
  x+1/2,-y+1/2,z+1/2
  -x+1/2,y+1/2,z+1/2
  y+1/2,x+1/2,-z+1/2
  -y+1/2,-x+1/2,-z+1/2
_cell_length_a                    15.5790
_cell_length_b                    15.5790
_cell_length_c                    18.8108
_cell_angle_alpha                 90.0000
_cell_angle_beta                  90.0000
_cell_angle_gamma                 90.0000
loop_
_atom_site_label
_atom_site_type_symbol
_atom_site_fract_x
_atom_site_fract_y
_atom_site_fract_z
_atom_site_U_iso_or_equiv
_atom_site_adp_type
_atom_site_occupancy
C1     C     0.53488   0.66010   0.56589   0.00000  Uiso   1.00
C2     C     0.58263   0.71575   0.60778   0.00000  Uiso   1.00
H3     H     0.47812   0.68323   0.53889   0.00000  Uiso   1.00
C4     C     0.76229   0.56099   0.66172   0.00000  Uiso   1.00
N5     N     0.81411   0.59671   0.70622   0.00000  Uiso   1.00
H6     H     0.77678   0.49669   0.64325   0.00000  Uiso   1.00
C7     C     0.88797   0.54937   0.73310   0.00000  Uiso   1.00
H8     H     0.92022   0.51403   0.68920   0.00000  Uiso   1.00
C9     C     0.86766   0.04657   0.09413   0.00000  Uiso   1.00
C10    C     0.81731   0.10145   0.13509   0.00000  Uiso   1.00
H11    H     0.84841   0.98028   0.08758   0.00000  Uiso   1.00
H12    H     0.86610   0.50255   0.77380   0.00000  Uiso   1.00
C13    C     0.56003   0.57535   0.55847   0.00000  Uiso   1.00
C14    C     0.65629   0.68818   0.64275   0.00000  Uiso   1.00
O15    O     0.69923   0.75112   0.68185   0.00000  Uiso   1.00
O16    O     0.55733   0.80090   0.61483   0.00000  Uiso   1.00
H17    H     0.50331   0.81314   0.58667   0.00000  Uiso   1.00
Si18   Si    0.00000   0.00000   0.00000   0.00000  Uiso   1.00
Ag19   Ag    0.78749   0.71251   0.75000   0.00000  Uiso   1.00
loop_
_geom_bond_atom_site_label_1
_geom_bond_atom_site_label_2
_geom_bond_distance
_geom_bond_site_symmetry_2
_ccdc_geom_bond_type
C1     C13     1.384   .     A
C1     C2      1.388   .     A
C1     H3      1.082   .     S
C2     C14     1.391   .     A
C2     O16     1.390   .     S
C4     N5      1.289   .     D
C4     H6      1.084   .     S
C4     C10     1.478   6_655 S
N5     Ag19    2.026   .     S
N5     C7      1.457   .     S
C7     H8      1.113   .     S
C7     C7      1.520   8_666 S
C7     H12     1.111   .     S
C9     C13     1.386   6_644 A
C9     C10     1.393   .     A
C9     H11     1.082   1_545 S
C10    C14     1.420   6_644 A
C10    C4      1.478   6_644 S
H11    C9      1.082   1_565 S
C13    C9      1.386   6_655 A
C13    Si18    1.861   5     S
C14    C10     1.420   6_655 A
C14    O15     1.396   .     S
O15    Ag19    1.974   .     S
O16    H17     1.012   .     S
Si18   C13     1.861   5_454 S
Si18   C13     1.861   6_544 S
Si18   C13     1.861   8     S
Si18   C13     1.861   7_445 S
Ag19   N5      2.026   8_666 S
Ag19   O15     1.974   8_666 S
