data_dAg09
_audit_creation_date              2025-09-02
_audit_creation_method            'Materials Studio'
_symmetry_space_group_name_H-M    'P-4N2'
_symmetry_Int_Tables_number       118
_symmetry_cell_setting            tetragonal
loop_
_symmetry_equiv_pos_as_xyz
  x,y,z
  -x,-y,z
  y,-x,-z
  -y,x,-z
  x+1/2,-y+1/2,z+1/2
  -x+1/2,y+1/2,z+1/2
  y+1/2,x+1/2,-z+1/2
  -y+1/2,-x+1/2,-z+1/2
_cell_length_a                    31.9687
_cell_length_b                    31.9687
_cell_length_c                    15.7286
_cell_angle_alpha                 90.0000
_cell_angle_beta                  90.0000
_cell_angle_gamma                 90.0000
loop_
_atom_site_label
_atom_site_type_symbol
_atom_site_fract_x
_atom_site_fract_y
_atom_site_fract_z
_atom_site_U_iso_or_equiv
_atom_site_adp_type
_atom_site_occupancy
C1     C     0.54201   0.40127   0.40967   0.00000  Uiso   1.00
C2     C     0.56801   0.37315   0.36802   0.00000  Uiso   1.00
H3     H     0.51871   0.39033   0.45447   0.00000  Uiso   1.00
H4     H     0.56497   0.34014   0.38132   0.00000  Uiso   1.00
C5     C     0.61926   0.31577   0.26491   0.00000  Uiso   1.00
C6     C     0.64858   0.28658   0.23687   0.00000  Uiso   1.00
H7     H     0.58784   0.30537   0.27856   0.00000  Uiso   1.00
C8     C     0.07703   0.04144   0.84117   0.00000  Uiso   1.00
C9     C     0.10300   0.06953   0.79911   0.00000  Uiso   1.00
H10    H     0.08078   0.00810   0.83199   0.00000  Uiso   1.00
H11    H     0.12656   0.05776   0.75606   0.00000  Uiso   1.00
C12    C     0.16969   0.12900   0.75430   0.00000  Uiso   1.00
C13    C     0.19901   0.15744   0.72493   0.00000  Uiso   1.00
H14    H     0.17887   0.09677   0.76267   0.00000  Uiso   1.00
C15    C     0.13274   0.25640   0.72441   0.00000  Uiso   1.00
N16    N     0.15707   0.28861   0.72734   0.00000  Uiso   1.00
H17    H     0.09931   0.26096   0.71798   0.00000  Uiso   1.00
C18    C     0.14096   0.33128   0.72254   0.00000  Uiso   1.00
H19    H     0.10802   0.33267   0.74503   0.00000  Uiso   1.00
H20    H     0.14245   0.34228   0.65555   0.00000  Uiso   1.00
C21    C     0.54694   0.44400   0.39756   0.00000  Uiso   1.00
C22    C     0.59930   0.38751   0.31345   0.00000  Uiso   1.00
C23    C     0.62964   0.35779   0.27587   0.00000  Uiso   1.00
C24    C     0.68952   0.30036   0.21812   0.00000  Uiso   1.00
O25    O     0.72160   0.27402   0.19152   0.00000  Uiso   1.00
C26    C     0.47801   0.52615   0.45075   0.00000  Uiso   1.00
O27    O     0.50419   0.54949   0.50020   0.00000  Uiso   1.00
H28    H     0.23023   0.14685   0.70963   0.00000  Uiso   1.00
Ag29   Ag    0.21935   0.28065   0.75000   0.00000  Uiso   1.00
O30    O     0.50000   0.50000   0.39841   0.00000  Uiso   1.00
loop_
_geom_bond_atom_site_label_1
_geom_bond_atom_site_label_2
_geom_bond_distance
_geom_bond_site_symmetry_2
_ccdc_geom_bond_type
C1     C21     1.388   .     A
C1     C2      1.388   .     A
C1     H3      1.083   .     S
C2     C22     1.396   .     A
C2     H4      1.080   .     S
C5     C23     1.394   .     A
C5     C6      1.394   .     A
C5     H7      1.080   .     S
C6     C24     1.412   .     A
C6     C15     1.478   5_554 S
C8     C21     1.389   5_455 A
C8     C9      1.390   .     A
C8     H10     1.082   .     S
C9     C22     1.397   5_455 A
C9     H11     1.080   .     S
C12    C23     1.390   5_455 A
C12    C13     1.385   .     A
C12    H14     1.079   .     S
C13    C24     1.387   5_455 A
C13    H28     1.081   .     S
C15    N16     1.291   .     D
C15    H17     1.083   .     S
C15    C6      1.478   5_455 S
N16    Ag29    2.039   .     S
N16    C18     1.460   .     S
C18    H19     1.112   .     S
C18    H20     1.112   .     S
C18    C18     1.523   8_556 S
C21    C8      1.389   5_554 A
C21    C26     1.499   2_665 S
C22    C9      1.397   5_554 A
C22    C23     1.481   .     S
C23    C12     1.390   5_554 A
C24    C13     1.387   5_554 A
C24    O25     1.391   .     S
O25    Ag29    1.976   4_656 S
C26    O30     1.368   .     S
C26    O27     1.364   4_656 S
C26    C21     1.499   2_665 S
O27    C26     1.364   3_566 S
Ag29   N16     2.039   8_556 S
Ag29   O25     1.976   3_566 S
Ag29   O25     1.976   5_455 S
O30    C26     1.368   2_665 S
