data_dAg04
_audit_creation_date              2025-09-02
_audit_creation_method            'Materials Studio'
_symmetry_space_group_name_H-M    'P-4N2'
_symmetry_Int_Tables_number       118
_symmetry_cell_setting            tetragonal
loop_
_symmetry_equiv_pos_as_xyz
  x,y,z
  -x,-y,z
  y,-x,-z
  -y,x,-z
  x+1/2,-y+1/2,z+1/2
  -x+1/2,y+1/2,z+1/2
  y+1/2,x+1/2,-z+1/2
  -y+1/2,-x+1/2,-z+1/2
_cell_length_a                    17.2065
_cell_length_b                    17.2065
_cell_length_c                    35.4382
_cell_angle_alpha                 90.0000
_cell_angle_beta                  90.0000
_cell_angle_gamma                 90.0000
loop_
_atom_site_label
_atom_site_type_symbol
_atom_site_fract_x
_atom_site_fract_y
_atom_site_fract_z
_atom_site_U_iso_or_equiv
_atom_site_adp_type
_atom_site_occupancy
C1     C     0.55253   0.62723   0.52799   0.00000  Uiso   1.00
C2     C     0.59447   0.66658   0.55547   0.00000  Uiso   1.00
H3     H     0.51651   0.66050   0.50890   0.00000  Uiso   1.00
H4     H     0.59175   0.72928   0.55652   0.00000  Uiso   1.00
C5     C     0.36544   0.74024   0.36808   0.00000  Uiso   1.00
C6     C     0.33140   0.77263   0.33605   0.00000  Uiso   1.00
H7     H     0.41849   0.76540   0.37885   0.00000  Uiso   1.00
C8     C     0.90079   0.00589   0.05254   0.00000  Uiso   1.00
C9     C     0.85898   0.04533   0.07991   0.00000  Uiso   1.00
H10    H     0.90048   0.94295   0.05259   0.00000  Uiso   1.00
H11    H     0.82717   0.01244   0.10080   0.00000  Uiso   1.00
C12    C     0.76279   0.85335   0.87306   0.00000  Uiso   1.00
C13    C     0.72759   0.82117   0.84155   0.00000  Uiso   1.00
H14    H     0.73640   0.90330   0.88631   0.00000  Uiso   1.00
C15    C     0.87007   0.65740   0.82092   0.00000  Uiso   1.00
N16    N     0.86298   0.63663   0.78610   0.00000  Uiso   1.00
H17    H     0.90941   0.62567   0.83916   0.00000  Uiso   1.00
C18    C     0.90738   0.57211   0.77029   0.00000  Uiso   1.00
H19    H     0.87102   0.51871   0.77047   0.00000  Uiso   1.00
H20    H     0.96108   0.56145   0.78695   0.00000  Uiso   1.00
C21    C     0.55386   0.54602   0.52623   0.00000  Uiso   1.00
C22    C     0.63807   0.62602   0.58209   0.00000  Uiso   1.00
C23    C     0.33289   0.67624   0.38626   0.00000  Uiso   1.00
C24    C     0.26186   0.73988   0.32212   0.00000  Uiso   1.00
O25    O     0.22387   0.76589   0.28983   0.00000  Uiso   1.00
H26    H     0.67380   0.84561   0.83116   0.00000  Uiso   1.00
C27    C     0.50000   0.50000   0.50000   0.00000  Uiso   1.00
Ag28   Ag    0.79793   0.70207   0.75000   0.00000  Uiso   1.00
loop_
_geom_bond_atom_site_label_1
_geom_bond_atom_site_label_2
_geom_bond_distance
_geom_bond_site_symmetry_2
_ccdc_geom_bond_type
C1     C21     1.399   .     A
C1     C2      1.388   .     A
C1     H3      1.082   .     S
C2     C22     1.393   .     A
C2     H4      1.080   .     S
C5     C23     1.393   .     A
C5     C6      1.394   .     A
C5     H7      1.080   .     S
C6     C24     1.412   .     A
C6     C15     1.476   5_464 S
C8     C21     1.398   6_644 A
C8     C9      1.385   .     A
C8     H10     1.083   1_545 S
C9     C22     1.391   6_644 A
C9     H11     1.081   .     S
H10    C8      1.083   1_565 S
C12    C23     1.390   5_565 A
C12    C13     1.386   .     A
C12    H14     1.080   .     S
C13    C24     1.388   5_565 A
C13    H26     1.081   .     S
C15    C6      1.476   5_565 S
C15    N16     1.291   .     D
C15    H17     1.083   .     S
N16    Ag28    2.039   .     S
N16    C18     1.460   .     S
C18    H19     1.112   .     S
C18    H20     1.112   .     S
C18    C18     1.522   8_666 S
C21    C27     1.533   .     S
C21    C8      1.398   6_655 A
C22    C9      1.391   6_655 A
C22    C23     1.480   3_566 S
C23    C12     1.390   5_464 A
C23    C22     1.480   4_656 S
C24    C13     1.388   5_464 A
C24    O25     1.392   .     S
O25    Ag28    1.980   4_656 S
C27    C21     1.533   2_665 S
C27    C21     1.533   3_566 S
C27    C21     1.533   4_656 S
Ag28   O25     1.980   5_565 S
Ag28   O25     1.980   3_566 S
Ag28   N16     2.039   8_666 S
