data_dAg07-oh
_audit_creation_date              2025-09-02
_audit_creation_method            'Materials Studio'
_symmetry_space_group_name_H-M    'P-4N2'
_symmetry_Int_Tables_number       118
_symmetry_cell_setting            tetragonal
loop_
_symmetry_equiv_pos_as_xyz
  x,y,z
  -x,-y,z
  y,-x,-z
  -y,x,-z
  x+1/2,-y+1/2,z+1/2
  -x+1/2,y+1/2,z+1/2
  y+1/2,x+1/2,-z+1/2
  -y+1/2,-x+1/2,-z+1/2
_cell_length_a                    17.5210
_cell_length_b                    17.5210
_cell_length_c                    28.5899
_cell_angle_alpha                 90.0000
_cell_angle_beta                  90.0000
_cell_angle_gamma                 90.0000
loop_
_atom_site_label
_atom_site_type_symbol
_atom_site_fract_x
_atom_site_fract_y
_atom_site_fract_z
_atom_site_U_iso_or_equiv
_atom_site_adp_type
_atom_site_occupancy
C1     C     0.43908   0.44244   0.53723   0.00000  Uiso   1.00
C2     C     0.39986   0.40553   0.56345   0.00000  Uiso   1.00
C3     C     0.64566   0.63703   0.59603   0.00000  Uiso   1.00
C4     C     0.62519   0.71064   0.60809   0.00000  Uiso   1.00
C5     C     0.70858   0.60319   0.61678   0.00000  Uiso   1.00
C6     C     0.66669   0.74983   0.64178   0.00000  Uiso   1.00
H7     H     0.57632   0.73717   0.59174   0.00000  Uiso   1.00
C8     C     0.75072   0.64100   0.65103   0.00000  Uiso   1.00
H9     H     0.72442   0.54598   0.60649   0.00000  Uiso   1.00
C10    C     0.72804   0.71545   0.66431   0.00000  Uiso   1.00
C11    C     0.81843   0.59917   0.66817   0.00000  Uiso   1.00
O12    O     0.76420   0.75848   0.69869   0.00000  Uiso   1.00
N13    N     0.84951   0.61264   0.70826   0.00000  Uiso   1.00
H14    H     0.83876   0.55126   0.64767   0.00000  Uiso   1.00
C15    C     0.90851   0.56190   0.72655   0.00000  Uiso   1.00
H16    H     0.95651   0.55782   0.70121   0.00000  Uiso   1.00
H17    H     0.38408   0.99608   0.23160   0.00000  Uiso   1.00
O18    O     0.64579   0.82359   0.65432   0.00000  Uiso   1.00
H19    H     0.60011   0.84178   0.63572   0.00000  Uiso   1.00
Si20   Si    0.50000   0.50000   0.50000   0.00000  Uiso   1.00
Ag21   Ag    0.80502   0.69498   0.75000   0.00000  Uiso   1.00
loop_
_geom_bond_atom_site_label_1
_geom_bond_atom_site_label_2
_geom_bond_distance
_geom_bond_site_symmetry_2
_ccdc_geom_bond_type
C1     Si20    1.814   .     S
C1     C2      1.205   .     T
C2     C3      1.435   2_665 S
C3     C4      1.382   .     S
C3     C5      1.385   .     D
C3     C2      1.435   2_665 S
C4     C6      1.389   .     D
C4     H7      1.081   .     S
C5     C8      1.394   .     S
C5     H9      1.081   .     S
C6     C10     1.390   .     S
C6     O18     1.390   .     S
C8     C10     1.415   .     D
C8     C11     1.478   .     S
C10    O12     1.391   .     S
C11    N13     1.291   .     D
C11    H14     1.084   .     S
O12    Ag21    1.975   .     S
N13    Ag21    2.028   .     S
N13    C15     1.460   .     S
C15    H16     1.112   .     S
C15    C15     1.528   8_666 S
C15    H17     1.112   5_565 S
H17    C15     1.112   5_464 S
O18    H19     1.012   .     S
Si20   C1      1.814   2_665 S
Si20   C1      1.814   3_566 S
Si20   C1      1.814   4_656 S
Ag21   O12     1.975   8_666 S
Ag21   N13     2.028   8_666 S
