data_dAg01-nh2
_audit_creation_date              2025-09-02
_audit_creation_method            'Materials Studio'
_symmetry_space_group_name_H-M    'P-4N2'
_symmetry_Int_Tables_number       118
_symmetry_cell_setting            tetragonal
loop_
_symmetry_equiv_pos_as_xyz
  x,y,z
  -x,-y,z
  y,-x,-z
  -y,x,-z
  x+1/2,-y+1/2,z+1/2
  -x+1/2,y+1/2,z+1/2
  y+1/2,x+1/2,-z+1/2
  -y+1/2,-x+1/2,-z+1/2
_cell_length_a                    31.8737
_cell_length_b                    31.8737
_cell_length_c                    29.6676
_cell_angle_alpha                 90.0000
_cell_angle_beta                  90.0000
_cell_angle_gamma                 90.0000
loop_
_atom_site_label
_atom_site_type_symbol
_atom_site_fract_x
_atom_site_fract_y
_atom_site_fract_z
_atom_site_U_iso_or_equiv
_atom_site_adp_type
_atom_site_occupancy
C1     C     0.51179   0.55231   0.56280   0.00000  Uiso   1.00
C2     C     0.53723   0.57456   0.59230   0.00000  Uiso   1.00
H3     H     0.47811   0.55630   0.56433   0.00000  Uiso   1.00
H4     H     0.52344   0.59599   0.61637   0.00000  Uiso   1.00
C5     C     0.37557   0.69482   0.31366   0.00000  Uiso   1.00
C6     C     0.35208   0.72047   0.28511   0.00000  Uiso   1.00
H7     H     0.40393   0.70681   0.32894   0.00000  Uiso   1.00
C8     C     0.92736   0.01898   0.03119   0.00000  Uiso   1.00
C9     C     0.90198   0.04131   0.06076   0.00000  Uiso   1.00
H10    H     0.91294   0.99667   0.00858   0.00000  Uiso   1.00
H11    H     0.86835   0.03677   0.06030   0.00000  Uiso   1.00
C12    C     0.82760   0.86221   0.80298   0.00000  Uiso   1.00
C13    C     0.80391   0.83748   0.77417   0.00000  Uiso   1.00
H14    H     0.81819   0.89414   0.80990   0.00000  Uiso   1.00
C15    C     0.87036   0.73759   0.77656   0.00000  Uiso   1.00
N16    N     0.84860   0.70621   0.76199   0.00000  Uiso   1.00
H17    H     0.90275   0.73242   0.78618   0.00000  Uiso   1.00
C18    C     0.86667   0.66410   0.76084   0.00000  Uiso   1.00
H19    H     0.87342   0.65375   0.79588   0.00000  Uiso   1.00
H20    H     0.89657   0.66439   0.74150   0.00000  Uiso   1.00
C21    C     0.52914   0.52487   0.53109   0.00000  Uiso   1.00
C22    C     0.58037   0.56926   0.59112   0.00000  Uiso   1.00
C23    C     0.59256   0.39337   0.37853   0.00000  Uiso   1.00
C24    C     0.61248   0.37160   0.35310   0.00000  Uiso   1.00
C25    C     0.36328   0.65400   0.32292   0.00000  Uiso   1.00
C26    C     0.31514   0.70383   0.26546   0.00000  Uiso   1.00
O27    O     0.28892   0.72582   0.23636   0.00000  Uiso   1.00
N28    N     0.76717   0.85431   0.75373   0.00000  Uiso   1.00
H29    H     0.74903   0.83575   0.73227   0.00000  Uiso   1.00
H30    H     0.75819   0.88524   0.76005   0.00000  Uiso   1.00
C31    C     0.50000   0.50000   0.50000   0.00000  Uiso   1.00
Ag32   Ag    0.78635   0.71365   0.75000   0.00000  Uiso   1.00
loop_
_geom_bond_atom_site_label_1
_geom_bond_atom_site_label_2
_geom_bond_distance
_geom_bond_site_symmetry_2
_ccdc_geom_bond_type
C1     C21     1.398   .     A
C1     C2      1.388   .     A
C1     H3      1.082   .     S
C2     C22     1.386   .     A
C2     H4      1.082   .     S
C5     C25     1.386   .     A
C5     C6      1.395   .     A
C5     H7      1.081   .     S
C6     C26     1.417   .     A
C6     C15     1.480   5_464 S
C8     C21     1.399   6_644 A
C8     C9      1.389   .     A
C8     H10     1.080   1_545 S
C9     C22     1.386   6_644 A
C9     H11     1.082   .     S
H10    C8      1.080   1_565 S
C12    C25     1.382   5_565 A
C12    C13     1.387   .     A
C12    H14     1.081   .     S
C13    C26     1.389   5_565 A
C13    N28     1.423   .     S
C15    C6      1.480   5_565 S
C15    N16     1.292   .     D
C15    H17     1.084   .     S
N16    Ag32    2.030   .     S
N16    C18     1.461   .     S
C18    H19     1.112   .     S
C18    H20     1.112   .     S
C18    C18     1.529   8_666 S
C21    C31     1.530   .     S
C21    C8      1.399   6_655 A
C22    C9      1.386   6_655 A
C22    C23     1.436   4_656 S
C23    C24     1.206   .     T
C23    C22     1.436   3_566 S
C24    C25     1.437   2_665 S
C25    C12     1.382   5_464 A
C25    C24     1.437   2_665 S
C26    C13     1.389   5_464 A
C26    O27     1.391   .     S
O27    Ag32    1.973   4_656 S
N28    H29     1.044   .     S
N28    H30     1.044   .     S
C31    C21     1.530   2_665 S
C31    C21     1.530   3_566 S
C31    C21     1.530   4_656 S
Ag32   O27     1.973   5_565 S
Ag32   O27     1.973   3_566 S
Ag32   N16     2.030   8_666 S
