data_dAg08
_audit_creation_date              2025-09-02
_audit_creation_method            'Materials Studio'
_symmetry_space_group_name_H-M    'P-4N2'
_symmetry_Int_Tables_number       118
_symmetry_cell_setting            tetragonal
loop_
_symmetry_equiv_pos_as_xyz
  x,y,z
  -x,-y,z
  y,-x,-z
  -y,x,-z
  x+1/2,-y+1/2,z+1/2
  -x+1/2,y+1/2,z+1/2
  y+1/2,x+1/2,-z+1/2
  -y+1/2,-x+1/2,-z+1/2
_cell_length_a                    15.6133
_cell_length_b                    15.6133
_cell_length_c                    18.7736
_cell_angle_alpha                 90.0000
_cell_angle_beta                  90.0000
_cell_angle_gamma                 90.0000
loop_
_atom_site_label
_atom_site_type_symbol
_atom_site_fract_x
_atom_site_fract_y
_atom_site_fract_z
_atom_site_U_iso_or_equiv
_atom_site_adp_type
_atom_site_occupancy
C1     C     0.53412   0.65971   0.56622   0.00000  Uiso   1.00
C2     C     0.58153   0.71501   0.60835   0.00000  Uiso   1.00
H3     H     0.47736   0.68284   0.53933   0.00000  Uiso   1.00
C4     C     0.76132   0.56126   0.66232   0.00000  Uiso   1.00
N5     N     0.81322   0.59712   0.70665   0.00000  Uiso   1.00
H6     H     0.77570   0.49699   0.64406   0.00000  Uiso   1.00
C7     C     0.88709   0.55008   0.73350   0.00000  Uiso   1.00
H8     H     0.91887   0.51428   0.68961   0.00000  Uiso   1.00
C9     C     0.86807   0.04679   0.09427   0.00000  Uiso   1.00
C10    C     0.81806   0.10159   0.13548   0.00000  Uiso   1.00
H11    H     0.84861   0.98074   0.08757   0.00000  Uiso   1.00
H12    H     0.86554   0.50384   0.77475   0.00000  Uiso   1.00
C13    C     0.55963   0.57530   0.55857   0.00000  Uiso   1.00
C14    C     0.65521   0.68800   0.64334   0.00000  Uiso   1.00
O15    O     0.69766   0.75093   0.68267   0.00000  Uiso   1.00
H16    H     0.56114   0.78085   0.61386   0.00000  Uiso   1.00
Si17   Si    0.00000   0.00000   0.00000   0.00000  Uiso   1.00
Ag18   Ag    0.78698   0.71302   0.75000   0.00000  Uiso   1.00
loop_
_geom_bond_atom_site_label_1
_geom_bond_atom_site_label_2
_geom_bond_distance
_geom_bond_site_symmetry_2
_ccdc_geom_bond_type
C1     C13     1.384   .     A
C1     C2      1.385   .     A
C1     H3      1.082   .     S
C2     C14     1.390   .     A
C2     H16     1.081   .     S
C4     N5      1.289   .     D
C4     H6      1.084   .     S
C4     C10     1.479   6_655 S
N5     Ag18    2.026   .     S
N5     C7      1.457   .     S
C7     H8      1.112   .     S
C7     C7      1.519   8_666 S
C7     H12     1.111   .     S
C9     C13     1.386   6_644 A
C9     C10     1.393   .     A
C9     H11     1.082   1_545 S
C10    C14     1.420   6_644 A
C10    C4      1.479   6_644 S
H11    C9      1.082   1_565 S
C13    C9      1.386   6_655 A
C13    Si17    1.860   5     S
C14    C10     1.420   6_655 A
C14    O15     1.396   .     S
O15    Ag18    1.973   .     S
Si17   C13     1.860   5_454 S
Si17   C13     1.860   6_544 S
Si17   C13     1.860   8     S
Si17   C13     1.860   7_445 S
Ag18   N5      2.026   8_666 S
Ag18   O15     1.973   8_666 S
