data_dAg01-ch3
_audit_creation_date              2025-09-02
_audit_creation_method            'Materials Studio'
_symmetry_space_group_name_H-M    'P-4N2'
_symmetry_Int_Tables_number       118
_symmetry_cell_setting            tetragonal
loop_
_symmetry_equiv_pos_as_xyz
  x,y,z
  -x,-y,z
  y,-x,-z
  -y,x,-z
  x+1/2,-y+1/2,z+1/2
  -x+1/2,y+1/2,z+1/2
  y+1/2,x+1/2,-z+1/2
  -y+1/2,-x+1/2,-z+1/2
_cell_length_a                    31.9565
_cell_length_b                    31.9565
_cell_length_c                    29.4882
_cell_angle_alpha                 90.0000
_cell_angle_beta                  90.0000
_cell_angle_gamma                 90.0000
loop_
_atom_site_label
_atom_site_type_symbol
_atom_site_fract_x
_atom_site_fract_y
_atom_site_fract_z
_atom_site_U_iso_or_equiv
_atom_site_adp_type
_atom_site_occupancy
C1     C     0.51271   0.55174   0.56341   0.00000  Uiso   1.00
C2     C     0.53852   0.57366   0.59288   0.00000  Uiso   1.00
H3     H     0.47916   0.55600   0.56529   0.00000  Uiso   1.00
H4     H     0.52514   0.59511   0.61727   0.00000  Uiso   1.00
C5     C     0.37695   0.69655   0.31392   0.00000  Uiso   1.00
C6     C     0.35351   0.72222   0.28528   0.00000  Uiso   1.00
H7     H     0.40528   0.70845   0.32927   0.00000  Uiso   1.00
C8     C     0.92715   0.01807   0.03094   0.00000  Uiso   1.00
C9     C     0.90140   0.04008   0.06046   0.00000  Uiso   1.00
H10    H     0.91315   0.99576   0.00799   0.00000  Uiso   1.00
H11    H     0.86790   0.03531   0.05962   0.00000  Uiso   1.00
C12    C     0.82903   0.86027   0.80316   0.00000  Uiso   1.00
C13    C     0.80533   0.83555   0.77427   0.00000  Uiso   1.00
H14    H     0.81962   0.89212   0.81008   0.00000  Uiso   1.00
C15    C     0.87174   0.73592   0.77679   0.00000  Uiso   1.00
N16    N     0.85006   0.70461   0.76212   0.00000  Uiso   1.00
H17    H     0.90402   0.73076   0.78655   0.00000  Uiso   1.00
C18    C     0.86801   0.66258   0.76108   0.00000  Uiso   1.00
H19    H     0.87441   0.65219   0.79638   0.00000  Uiso   1.00
H20    H     0.89799   0.66282   0.74193   0.00000  Uiso   1.00
C21    C     0.52951   0.52432   0.53124   0.00000  Uiso   1.00
C22    C     0.58149   0.56807   0.59122   0.00000  Uiso   1.00
C23    C     0.59120   0.39189   0.37859   0.00000  Uiso   1.00
C24    C     0.61105   0.36989   0.35327   0.00000  Uiso   1.00
C25    C     0.36470   0.65581   0.32315   0.00000  Uiso   1.00
C26    C     0.31662   0.70568   0.26548   0.00000  Uiso   1.00
O27    O     0.29058   0.72769   0.23615   0.00000  Uiso   1.00
C28    C     0.76690   0.85320   0.75296   0.00000  Uiso   1.00
H29    H     0.75163   0.82929   0.73126   0.00000  Uiso   1.00
H30    H     0.77540   0.88065   0.73184   0.00000  Uiso   1.00
H31    H     0.74470   0.86311   0.77984   0.00000  Uiso   1.00
C32    C     0.50000   0.50000   0.50000   0.00000  Uiso   1.00
Ag33   Ag    0.78800   0.71200   0.75000   0.00000  Uiso   1.00
loop_
_geom_bond_atom_site_label_1
_geom_bond_atom_site_label_2
_geom_bond_distance
_geom_bond_site_symmetry_2
_ccdc_geom_bond_type
C1     C21     1.398   .     A
C1     C2      1.388   .     A
C1     H3      1.082   .     S
C2     C22     1.386   .     A
C2     H4      1.082   .     S
C5     C25     1.387   .     A
C5     C6      1.395   .     A
C5     H7      1.081   .     S
C6     C26     1.418   .     A
C6     C15     1.481   5_464 S
C8     C21     1.399   6_644 A
C8     C9      1.389   .     A
C8     H10     1.080   1_545 S
C9     C22     1.386   6_644 A
C9     H11     1.082   .     S
H10    C8      1.080   1_565 S
C12    C25     1.382   5_565 A
C12    C13     1.387   .     A
C12    H14     1.081   .     S
C13    C26     1.390   5_565 A
C13    C28     1.490   .     S
C15    C6      1.481   5_565 S
C15    N16     1.292   .     D
C15    H17     1.084   .     S
N16    Ag33    2.029   .     S
N16    C18     1.461   .     S
C18    H19     1.111   .     S
C18    H20     1.112   .     S
C18    C18     1.529   8_666 S
C21    C32     1.531   .     S
C21    C8      1.399   6_655 A
C22    C9      1.386   6_655 A
C22    C23     1.436   4_656 S
C23    C24     1.206   .     T
C23    C22     1.436   3_566 S
C24    C25     1.437   2_665 S
C25    C12     1.382   5_464 A
C25    C24     1.437   2_665 S
C26    C13     1.390   5_464 A
C26    O27     1.391   .     S
O27    Ag33    1.972   4_656 S
C28    H29     1.110   .     S
C28    H30     1.110   .     S
C28    H31     1.110   .     S
C32    C21     1.531   2_665 S
C32    C21     1.531   3_566 S
C32    C21     1.531   4_656 S
Ag33   O27     1.972   5_565 S
Ag33   O27     1.972   3_566 S
Ag33   N16     2.029   8_666 S
