data_dAg02
_audit_creation_date              2025-09-02
_audit_creation_method            'Materials Studio'
_symmetry_space_group_name_H-M    'P222'
_symmetry_Int_Tables_number       16
_symmetry_cell_setting            orthorhombic
loop_
_symmetry_equiv_pos_as_xyz
  x,y,z
  -x,-y,z
  -x,y,-z
  x,-y,-z
_cell_length_a                    28.8330
_cell_length_b                    36.6243
_cell_length_c                    30.6133
_cell_angle_alpha                 90.0000
_cell_angle_beta                  90.0000
_cell_angle_gamma                 90.0000
loop_
_atom_site_label
_atom_site_type_symbol
_atom_site_fract_x
_atom_site_fract_y
_atom_site_fract_z
_atom_site_U_iso_or_equiv
_atom_site_adp_type
_atom_site_occupancy
C1     C     0.53591   0.52886   0.53624   0.00000  Uiso   1.00
C2     C     0.51859   0.56197   0.55121   0.00000  Uiso   1.00
C3     C     0.57935   0.51708   0.54994   0.00000  Uiso   1.00
C4     C     0.54518   0.58379   0.57851   0.00000  Uiso   1.00
H5     H     0.48439   0.57089   0.54138   0.00000  Uiso   1.00
C6     C     0.60600   0.53890   0.57725   0.00000  Uiso   1.00
H7     H     0.59255   0.49092   0.53925   0.00000  Uiso   1.00
C8     C     0.58904   0.57239   0.59137   0.00000  Uiso   1.00
H9     H     0.53173   0.60974   0.58967   0.00000  Uiso   1.00
H10    H     0.64002   0.52981   0.58746   0.00000  Uiso   1.00
C11    C     0.61683   0.40462   0.38103   0.00000  Uiso   1.00
C12    C     0.64006   0.38502   0.35814   0.00000  Uiso   1.00
C13    C     0.33238   0.63866   0.33118   0.00000  Uiso   1.00
C14    C     0.28727   0.64683   0.34298   0.00000  Uiso   1.00
C15    C     0.35097   0.65348   0.29335   0.00000  Uiso   1.00
C16    C     0.26110   0.67009   0.31723   0.00000  Uiso   1.00
H17    H     0.27245   0.63518   0.37230   0.00000  Uiso   1.00
C18    C     0.32531   0.67712   0.26704   0.00000  Uiso   1.00
H19    H     0.38610   0.64643   0.28419   0.00000  Uiso   1.00
C20    C     0.27953   0.68590   0.27978   0.00000  Uiso   1.00
C21    C     0.34886   0.68911   0.22660   0.00000  Uiso   1.00
O22    O     0.25012   0.70911   0.25666   0.00000  Uiso   1.00
N23    N     0.33369   0.71497   0.20166   0.00000  Uiso   1.00
C24    C     0.36056   0.73098   0.16608   0.00000  Uiso   1.00
H25    H     0.38481   0.75132   0.18032   0.00000  Uiso   1.00
C26    C     0.03601   0.97115   0.03615   0.00000  Uiso   1.00
C27    C     0.01895   0.93787   0.05084   0.00000  Uiso   1.00
C28    C     0.07951   0.98294   0.04970   0.00000  Uiso   1.00
C29    C     0.04590   0.91586   0.07759   0.00000  Uiso   1.00
H30    H     0.98473   0.92893   0.04111   0.00000  Uiso   1.00
C31    C     0.10652   0.96092   0.07646   0.00000  Uiso   1.00
H32    H     0.09252   0.00920   0.03921   0.00000  Uiso   1.00
C33    C     0.08985   0.92723   0.09018   0.00000  Uiso   1.00
H34    H     0.03269   0.88974   0.08845   0.00000  Uiso   1.00
H35    H     0.14062   0.96998   0.08645   0.00000  Uiso   1.00
C36    C     0.11809   0.09605   0.88297   0.00000  Uiso   1.00
C37    C     0.14160   0.11594   0.86071   0.00000  Uiso   1.00
C38    C     0.83060   0.85999   0.83447   0.00000  Uiso   1.00
C39    C     0.79481   0.84028   0.85342   0.00000  Uiso   1.00
C40    C     0.83954   0.85632   0.79032   0.00000  Uiso   1.00
C41    C     0.76782   0.81617   0.82899   0.00000  Uiso   1.00
H42    H     0.78781   0.84383   0.88789   0.00000  Uiso   1.00
C43    C     0.81302   0.83267   0.76539   0.00000  Uiso   1.00
H44    H     0.86723   0.87178   0.77527   0.00000  Uiso   1.00
C45    C     0.77773   0.81202   0.78404   0.00000  Uiso   1.00
O46    O     0.75365   0.78893   0.75584   0.00000  Uiso   1.00
H47    H     0.61841   0.67629   0.78109   0.00000  Uiso   1.00
C48    C     0.72949   0.79861   0.85324   0.00000  Uiso   1.00
H49    H     0.72317   0.80809   0.88612   0.00000  Uiso   1.00
N50    N     0.70515   0.22823   0.16182   0.00000  Uiso   1.00
C51    C     0.67277   0.24948   0.13544   0.00000  Uiso   1.00
H52    H     0.69298   0.27019   0.11699   0.00000  Uiso   1.00
Zn53   Ag    0.72089   0.74641   0.78168   0.00000  Uiso   1.00
H54    H     0.22586   0.67646   0.32664   0.00000  Uiso   1.00
H55    H     0.17980   0.82984   0.26912   0.00000  Uiso   1.00
C56    C     0.38834   0.70332   0.13967   0.00000  Uiso   1.00
C57    C     0.41666   0.72388   0.10541   0.00000  Uiso   1.00
C58    C     0.38570   0.74746   0.07627   0.00000  Uiso   1.00
C59    C     0.35540   0.77320   0.10324   0.00000  Uiso   1.00
H60    H     0.41267   0.68824   0.16113   0.00000  Uiso   1.00
H61    H     0.36461   0.68364   0.12352   0.00000  Uiso   1.00
H62    H     0.43573   0.70394   0.08485   0.00000  Uiso   1.00
H63    H     0.44235   0.74164   0.12214   0.00000  Uiso   1.00
H64    H     0.36309   0.72941   0.05636   0.00000  Uiso   1.00
H65    H     0.40657   0.76288   1.05506   0.00000  Uiso   1.00
H66    H     0.33209   0.78812   0.08065   0.00000  Uiso   1.00
H67    H     0.37742   0.79309   0.12111   0.00000  Uiso   1.00
Si269  Si    0.50000   0.50000   0.50000   0.00000  Uiso   1.00
Si270  Si    0.00000   0.00000   0.00000   0.00000  Uiso   1.00
loop_
_geom_bond_atom_site_label_1
_geom_bond_atom_site_label_2
_geom_bond_distance
_geom_bond_site_symmetry_2
_ccdc_geom_bond_type
C1     Si269   1.849   .     S
C1     C2      1.389   .     A
C1     C3      1.390   .     A
C2     C4      1.387   .     A
C2     H5      1.081   .     S
C3     C6      1.389   .     A
C3     H7      1.081   .     S
C4     C8      1.389   .     A
C4     H9      1.082   .     S
C6     C8      1.389   .     A
C6     H10     1.082   .     S
C8     C11     1.437   4_566 S
C11    C12     1.206   .     T
C11    C8      1.437   4_566 S
C12    C13     1.437   2_665 S
C13    C14     1.383   .     S
C13    C15     1.387   .     D
C13    C12     1.437   2_665 S
C14    C16     1.384   .     D
C14    H17     1.082   .     S
C15    C18     1.395   .     S
C15    H19     1.082   .     S
C16    C20     1.390   .     S
C16    H54     1.081   .     S
C18    C20     1.414   .     D
C18    C21     1.479   .     S
C20    O22     1.393   .     S
C21    N23     1.293   .     D
C21    H47     1.080   3_656 S
O22    Zn53    1.985   3_656 S
N23    C24     1.460   .     S
N23    Zn53    2.015   3_656 S
C24    H25     1.111   .     S
C24    C51     1.522   2_665 S
C24    C56     1.524   .     S
C26    C27     1.389   .     A
C26    C28     1.390   .     A
C26    Si270   1.849   1_565 S
C27    C29     1.387   .     A
C27    H30     1.081   1_455 S
C28    C31     1.388   .     A
C28    H32     1.081   1_565 S
C29    C33     1.389   .     A
C29    H34     1.082   .     S
H30    C27     1.081   1_655 S
C31    C33     1.389   .     A
C31    H35     1.082   .     S
H32    C28     1.081   1_545 S
C33    C36     1.437   4_566 S
C36    C37     1.206   .     T
C36    C33     1.437   4_566 S
C37    C38     1.437   2_665 S
C38    C39     1.387   .     S
C38    C40     1.383   .     D
C38    C37     1.437   2_665 S
C39    C41     1.395   .     D
C39    H42     1.082   .     S
C40    C43     1.385   .     S
C40    H44     1.082   .     S
C41    C45     1.414   .     S
C41    C48     1.478   .     S
C43    C45     1.390   .     D
C43    H55     1.081   3_656 S
C45    O46     1.394   .     S
O46    Zn53    1.986   .     S
H47    C21     1.080   3_656 S
C48    H49     1.080   .     S
C48    N50     1.293   4_566 D
N50    C51     1.460   .     S
N50    C48     1.293   4_566 D
N50    Zn53    2.015   4_566 S
C51    H52     1.111   .     S
C51    C24     1.522   2_665 S
C51    C59     1.524   2_665 S
Zn53   N23     2.015   3_656 S
Zn53   N50     2.015   4_566 S
Zn53   O22     1.985   3_656 S
H55    C43     1.081   3_656 S
C56    C57     1.528   .     S
C56    H60     1.108   .     S
C56    H61     1.110   .     S
C57    C58     1.529   .     S
C57    H62     1.110   .     S
C57    H63     1.111   .     S
C58    C59     1.528   .     S
C58    H64     1.110   .     S
C58    H65     1.050   1_554 A
C59    C51     1.524   2_665 S
C59    H66     1.109   .     S
C59    H67     1.110   .     S
H65    C58     1.050   1_556 A
Si269  C1      1.849   2_665 S
Si269  C1      1.849   3_656 S
Si269  C1      1.849   4_566 S
Si270  C26     1.849   1_545 S
Si270  C26     1.849   2_565 S
Si270  C26     1.849   3_545 S
Si270  C26     1.849   4_565 S
