data_dAg07-ch3
_audit_creation_date              2025-09-02
_audit_creation_method            'Materials Studio'
_symmetry_space_group_name_H-M    'P-4N2'
_symmetry_Int_Tables_number       118
_symmetry_cell_setting            tetragonal
loop_
_symmetry_equiv_pos_as_xyz
  x,y,z
  -x,-y,z
  y,-x,-z
  -y,x,-z
  x+1/2,-y+1/2,z+1/2
  -x+1/2,y+1/2,z+1/2
  y+1/2,x+1/2,-z+1/2
  -y+1/2,-x+1/2,-z+1/2
_cell_length_a                    16.1602
_cell_length_b                    16.1602
_cell_length_c                    29.8489
_cell_angle_alpha                 90.0000
_cell_angle_beta                  90.0000
_cell_angle_gamma                 90.0000
loop_
_atom_site_label
_atom_site_type_symbol
_atom_site_fract_x
_atom_site_fract_y
_atom_site_fract_z
_atom_site_U_iso_or_equiv
_atom_site_adp_type
_atom_site_occupancy
C1     C     0.44109   0.43153   0.53600   0.00000  Uiso   1.00
C2     C     0.40370   0.38870   0.56212   0.00000  Uiso   1.00
C3     C     0.63922   0.65948   0.59513   0.00000  Uiso   1.00
C4     C     0.60708   0.73440   0.60931   0.00000  Uiso   1.00
C5     C     0.71027   0.62829   0.61485   0.00000  Uiso   1.00
C6     C     0.64487   0.77714   0.64410   0.00000  Uiso   1.00
H7     H     0.55165   0.75877   0.59390   0.00000  Uiso   1.00
C8     C     0.74857   0.66944   0.65020   0.00000  Uiso   1.00
H9     H     0.73515   0.57010   0.60312   0.00000  Uiso   1.00
C10    C     0.71394   0.74454   0.66563   0.00000  Uiso   1.00
C11    C     0.82567   0.63147   0.66691   0.00000  Uiso   1.00
O12    O     0.74557   0.78938   0.70156   0.00000  Uiso   1.00
N13    N     0.85168   0.64337   0.70726   0.00000  Uiso   1.00
H14    H     0.85775   0.58776   0.64554   0.00000  Uiso   1.00
C15    C     0.92181   0.59774   0.72565   0.00000  Uiso   1.00
H16    H     0.97818   0.63709   0.72417   0.00000  Uiso   1.00
H17    H     0.43291   0.96025   0.20652   0.00000  Uiso   1.00
C18    C     0.60919   0.85716   0.65970   0.00000  Uiso   1.00
H19    H     0.60983   0.90247   0.63177   0.00000  Uiso   1.00
H20    H     0.64616   0.88201   0.68801   0.00000  Uiso   1.00
H21    H     0.54452   0.84730   0.67099   0.00000  Uiso   1.00
Si22   Si    0.50000   0.50000   0.50000   0.00000  Uiso   1.00
Ag23   Ag    0.78460   0.71540   0.75000   0.00000  Uiso   1.00
loop_
_geom_bond_atom_site_label_1
_geom_bond_atom_site_label_2
_geom_bond_distance
_geom_bond_site_symmetry_2
_ccdc_geom_bond_type
C1     Si22    1.813   .     S
C1     C2      1.205   .     T
C2     C3      1.435   2_665 S
C3     C4      1.384   .     S
C3     C5      1.385   .     D
C3     C2      1.435   2_665 S
C4     C6      1.389   .     D
C4     H7      1.081   .     S
C5     C8      1.392   .     S
C5     H9      1.081   .     S
C6     C10     1.391   .     S
C6     C18     1.491   .     S
C8     C10     1.414   .     D
C8     C11     1.476   .     S
C10    O12     1.392   .     S
C11    N13     1.290   .     D
C11    H14     1.084   .     S
O12    Ag23    1.979   .     S
N13    Ag23    2.039   .     S
N13    C15     1.459   .     S
C15    H16     1.112   .     S
C15    C15     1.521   8_666 S
C15    H17     1.112   5_565 S
H17    C15     1.112   5_464 S
C18    H19     1.110   .     S
C18    H20     1.110   .     S
C18    H21     1.110   .     S
Si22   C1      1.813   2_665 S
Si22   C1      1.813   3_566 S
Si22   C1      1.813   4_656 S
Ag23   O12     1.979   8_666 S
Ag23   N13     2.039   8_666 S
