data_dAg04-f
_audit_creation_date              2025-09-02
_audit_creation_method            'Materials Studio'
_symmetry_space_group_name_H-M    'P-4N2'
_symmetry_Int_Tables_number       118
_symmetry_cell_setting            tetragonal
loop_
_symmetry_equiv_pos_as_xyz
  x,y,z
  -x,-y,z
  y,-x,-z
  -y,x,-z
  x+1/2,-y+1/2,z+1/2
  -x+1/2,y+1/2,z+1/2
  y+1/2,x+1/2,-z+1/2
  -y+1/2,-x+1/2,-z+1/2
_cell_length_a                    17.1069
_cell_length_b                    17.1069
_cell_length_c                    35.5063
_cell_angle_alpha                 90.0000
_cell_angle_beta                  90.0000
_cell_angle_gamma                 90.0000
loop_
_atom_site_label
_atom_site_type_symbol
_atom_site_fract_x
_atom_site_fract_y
_atom_site_fract_z
_atom_site_U_iso_or_equiv
_atom_site_adp_type
_atom_site_occupancy
C1     C     0.54973   0.62907   0.52812   0.00000  Uiso   1.00
C2     C     0.59095   0.66945   0.55563   0.00000  Uiso   1.00
H3     H     0.51266   0.66178   0.50914   0.00000  Uiso   1.00
H4     H     0.58664   0.73241   0.55682   0.00000  Uiso   1.00
C5     C     0.36057   0.73832   0.36815   0.00000  Uiso   1.00
C6     C     0.32622   0.77017   0.33606   0.00000  Uiso   1.00
H7     H     0.41348   0.76446   0.37894   0.00000  Uiso   1.00
C8     C     0.90030   0.00799   0.05235   0.00000  Uiso   1.00
C9     C     0.85924   0.04844   0.07974   0.00000  Uiso   1.00
H10    H     0.89845   0.94471   0.05229   0.00000  Uiso   1.00
H11    H     0.82644   0.01594   0.10051   0.00000  Uiso   1.00
C12    C     0.75863   0.85723   0.87302   0.00000  Uiso   1.00
C13    C     0.72296   0.82555   0.84146   0.00000  Uiso   1.00
H14    H     0.73271   0.90778   0.88627   0.00000  Uiso   1.00
C15    C     0.86452   0.65924   0.82084   0.00000  Uiso   1.00
N16    N     0.85767   0.63904   0.78598   0.00000  Uiso   1.00
H17    H     0.90366   0.62674   0.83901   0.00000  Uiso   1.00
C18    C     0.90260   0.57458   0.76996   0.00000  Uiso   1.00
H19    H     0.86550   0.52126   0.76894   0.00000  Uiso   1.00
H20    H     0.95560   0.56237   0.78710   0.00000  Uiso   1.00
C21    C     0.55311   0.54746   0.52619   0.00000  Uiso   1.00
C22    C     0.63589   0.62949   0.58208   0.00000  Uiso   1.00
C23    C     0.32863   0.67357   0.38629   0.00000  Uiso   1.00
C24    C     0.25685   0.73621   0.32206   0.00000  Uiso   1.00
O25    O     0.21874   0.76164   0.28966   0.00000  Uiso   1.00
F26    F     0.65572   0.85740   0.82838   0.00000  Uiso   1.00
C27    C     0.50000   0.50000   0.50000   0.00000  Uiso   1.00
Ag28   Ag    0.79361   0.70639   0.75000   0.00000  Uiso   1.00
loop_
_geom_bond_atom_site_label_1
_geom_bond_atom_site_label_2
_geom_bond_distance
_geom_bond_site_symmetry_2
_ccdc_geom_bond_type
C1     C21     1.399   .     A
C1     C2      1.389   .     A
C1     H3      1.082   .     S
C2     C22     1.393   .     A
C2     H4      1.080   .     S
C5     C23     1.393   .     A
C5     C6      1.393   .     A
C5     H7      1.080   .     S
C6     C24     1.412   .     A
C6     C15     1.476   5_464 S
C8     C21     1.398   6_644 A
C8     C9      1.385   .     A
C8     H10     1.083   1_545 S
C9     C22     1.391   6_644 A
C9     H11     1.080   .     S
H10    C8      1.083   1_565 S
C12    C23     1.391   5_565 A
C12    C13     1.386   .     A
C12    H14     1.080   .     S
C13    C24     1.388   5_565 A
C13    F26     1.355   .     S
C15    C6      1.476   5_565 S
C15    N16     1.290   .     D
C15    H17     1.083   .     S
N16    Ag28    2.040   .     S
N16    C18     1.460   .     S
C18    H19     1.112   .     S
C18    H20     1.112   .     S
C18    C18     1.521   8_666 S
C21    C27     1.533   .     S
C21    C8      1.398   6_655 A
C22    C9      1.391   6_655 A
C22    C23     1.480   3_566 S
C23    C12     1.391   5_464 A
C23    C22     1.480   4_656 S
C24    C13     1.388   5_464 A
C24    O25     1.392   .     S
O25    Ag28    1.980   4_656 S
C27    C21     1.533   2_665 S
C27    C21     1.533   3_566 S
C27    C21     1.533   4_656 S
Ag28   O25     1.980   5_565 S
Ag28   O25     1.980   3_566 S
Ag28   N16     2.040   8_666 S
