data_dAg06-f
_audit_creation_date              2025-09-02
_audit_creation_method            'Materials Studio'
_symmetry_space_group_name_H-M    'P-4N2'
_symmetry_Int_Tables_number       118
_symmetry_cell_setting            tetragonal
loop_
_symmetry_equiv_pos_as_xyz
  x,y,z
  -x,-y,z
  y,-x,-z
  -y,x,-z
  x+1/2,-y+1/2,z+1/2
  -x+1/2,y+1/2,z+1/2
  y+1/2,x+1/2,-z+1/2
  -y+1/2,-x+1/2,-z+1/2
_cell_length_a                    16.4925
_cell_length_b                    16.4925
_cell_length_c                    13.7184
_cell_angle_alpha                 90.0000
_cell_angle_beta                  90.0000
_cell_angle_gamma                 90.0000
loop_
_atom_site_label
_atom_site_type_symbol
_atom_site_fract_x
_atom_site_fract_y
_atom_site_fract_z
_atom_site_U_iso_or_equiv
_atom_site_adp_type
_atom_site_occupancy
C1     C     0.51396   0.62685   0.60486   0.00000  Uiso   1.00
C2     C     0.55636   0.67522   0.66976   0.00000  Uiso   1.00
H3     H     0.45355   0.64475   0.58294   0.00000  Uiso   1.00
C4     C     0.74518   0.54459   0.70244   0.00000  Uiso   1.00
N5     N     0.80317   0.58804   0.73787   0.00000  Uiso   1.00
H6     H     0.75516   0.48040   0.69061   0.00000  Uiso   1.00
C7     C     0.88238   0.55362   0.76088   0.00000  Uiso   1.00
H8     H     0.89390   0.49805   0.71705   0.00000  Uiso   1.00
C9     C     0.87619   0.03204   0.10445   0.00000  Uiso   1.00
C10    C     0.83221   0.08016   0.16890   0.00000  Uiso   1.00
H11    H     0.85103   0.97439   0.08200   0.00000  Uiso   1.00
H12    H     0.88456   0.53813   0.83962   0.00000  Uiso   1.00
C13    C     0.54837   0.55592   0.56803   0.00000  Uiso   1.00
C14    C     0.63360   0.65423   0.70071   0.00000  Uiso   1.00
O15    O     0.67109   0.70761   0.76522   0.00000  Uiso   1.00
F16    F     0.52214   0.74458   0.70305   0.00000  Uiso   1.00
C17    C     0.00000   0.00000   0.00000   0.00000  Uiso   1.00
Ag18   Ag    0.79007   0.70993   0.75000   0.00000  Uiso   1.00
loop_
_geom_bond_atom_site_label_1
_geom_bond_atom_site_label_2
_geom_bond_distance
_geom_bond_site_symmetry_2
_ccdc_geom_bond_type
C1     C13     1.395   .     A
C1     C2      1.385   .     A
C1     H3      1.082   .     S
C2     C14     1.387   .     A
C2     F16     1.355   .     S
C4     N5      1.290   .     D
C4     H6      1.084   .     S
C4     C10     1.478   6_655 S
N5     Ag18    2.029   .     S
N5     C7      1.459   .     S
C7     H8      1.112   .     S
C7     C7      1.522   8_666 S
C7     H12     1.111   .     S
C9     C13     1.397   6_644 A
C9     C10     1.392   .     A
C9     H11     1.082   1_545 S
C10    C14     1.414   6_644 A
C10    C4      1.478   6_644 S
H11    C9      1.082   1_565 S
C13    C9      1.397   6_655 A
C13    C17     1.536   5     S
C14    C10     1.414   6_655 A
C14    O15     1.393   .     S
O15    Ag18    1.974   .     S
C17    C13     1.536   5_454 S
C17    C13     1.536   6_544 S
C17    C13     1.536   8     S
C17    C13     1.536   7_445 S
Ag18   N5      2.029   8_666 S
Ag18   O15     1.974   8_666 S
