data_dAg07
_audit_creation_date              2025-09-02
_audit_creation_method            'Materials Studio'
_symmetry_space_group_name_H-M    'P-4N2'
_symmetry_Int_Tables_number       118
_symmetry_cell_setting            tetragonal
loop_
_symmetry_equiv_pos_as_xyz
  x,y,z
  -x,-y,z
  y,-x,-z
  -y,x,-z
  x+1/2,-y+1/2,z+1/2
  -x+1/2,y+1/2,z+1/2
  y+1/2,x+1/2,-z+1/2
  -y+1/2,-x+1/2,-z+1/2
_cell_length_a                    17.5993
_cell_length_b                    17.5993
_cell_length_c                    28.5164
_cell_angle_alpha                 90.0000
_cell_angle_beta                  90.0000
_cell_angle_gamma                 90.0000
loop_
_atom_site_label
_atom_site_type_symbol
_atom_site_fract_x
_atom_site_fract_y
_atom_site_fract_z
_atom_site_U_iso_or_equiv
_atom_site_adp_type
_atom_site_occupancy
C1     C     0.43948   0.44260   0.53733   0.00000  Uiso   1.00
C2     C     0.40048   0.40577   0.56358   0.00000  Uiso   1.00
C3     C     0.64480   0.63674   0.59617   0.00000  Uiso   1.00
C4     C     0.62428   0.70998   0.60825   0.00000  Uiso   1.00
C5     C     0.70769   0.60327   0.61687   0.00000  Uiso   1.00
C6     C     0.66581   0.74905   0.64179   0.00000  Uiso   1.00
H7     H     0.57543   0.73639   0.59206   0.00000  Uiso   1.00
C8     C     0.74980   0.64110   0.65107   0.00000  Uiso   1.00
H9     H     0.72354   0.54633   0.60655   0.00000  Uiso   1.00
C10    C     0.72715   0.71523   0.66432   0.00000  Uiso   1.00
C11    C     0.81740   0.59963   0.66814   0.00000  Uiso   1.00
O12    O     0.76332   0.75834   0.69860   0.00000  Uiso   1.00
N13    N     0.84864   0.61328   0.70822   0.00000  Uiso   1.00
H14    H     0.83754   0.55187   0.64761   0.00000  Uiso   1.00
C15    C     0.90765   0.56299   0.72647   0.00000  Uiso   1.00
H16    H     0.95544   0.55926   0.70105   0.00000  Uiso   1.00
H17    H     0.38362   0.99489   0.23144   0.00000  Uiso   1.00
H18    H     0.64915   0.80607   0.65147   0.00000  Uiso   1.00
Si19   Si    0.50000   0.50000   0.50000   0.00000  Uiso   1.00
Ag20   Ag    0.80454   0.69546   0.75000   0.00000  Uiso   1.00
loop_
_geom_bond_atom_site_label_1
_geom_bond_atom_site_label_2
_geom_bond_distance
_geom_bond_site_symmetry_2
_ccdc_geom_bond_type
C1     Si19    1.813   .     S
C1     C2      1.205   .     T
C2     C3      1.435   2_665 S
C3     C4      1.382   .     S
C3     C5      1.386   .     D
C3     C2      1.435   2_665 S
C4     C6      1.386   .     D
C4     H7      1.081   .     S
C5     C8      1.394   .     S
C5     H9      1.081   .     S
C6     C10     1.390   .     S
C6     H18     1.081   .     S
C8     C10     1.416   .     D
C8     C11     1.478   .     S
C10    O12     1.392   .     S
C11    N13     1.291   .     D
C11    H14     1.084   .     S
O12    Ag20    1.975   .     S
N13    Ag20    2.028   .     S
N13    C15     1.460   .     S
C15    H16     1.112   .     S
C15    C15     1.528   8_666 S
C15    H17     1.112   5_565 S
H17    C15     1.112   5_464 S
Si19   C1      1.813   2_665 S
Si19   C1      1.813   3_566 S
Si19   C1      1.813   4_656 S
Ag20   O12     1.975   8_666 S
Ag20   N13     2.028   8_666 S
