data_dAg12-ch3
_audit_creation_date              2025-09-02
_audit_creation_method            'Materials Studio'
_symmetry_space_group_name_H-M    'P222'
_symmetry_Int_Tables_number       16
_symmetry_cell_setting            orthorhombic
loop_
_symmetry_equiv_pos_as_xyz
  x,y,z
  -x,-y,z
  -x,y,-z
  x,-y,-z
_cell_length_a                    27.3347
_cell_length_b                    34.5285
_cell_length_c                    32.1289
_cell_angle_alpha                 90.0000
_cell_angle_beta                  90.0000
_cell_angle_gamma                 90.0000
loop_
_atom_site_label
_atom_site_type_symbol
_atom_site_fract_x
_atom_site_fract_y
_atom_site_fract_z
_atom_site_U_iso_or_equiv
_atom_site_adp_type
_atom_site_occupancy
C1     C     0.53126   0.52491   0.52902   0.00000  Uiso   1.00
C2     C     0.51319   0.55991   0.54464   0.00000  Uiso   1.00
C3     C     0.57596   0.51129   0.54437   0.00000  Uiso   1.00
C4     C     0.54084   0.58213   0.57187   0.00000  Uiso   1.00
H5     H     0.47746   0.57017   0.53531   0.00000  Uiso   1.00
C6     C     0.60359   0.53356   0.57161   0.00000  Uiso   1.00
H7     H     0.58962   0.48326   0.53487   0.00000  Uiso   1.00
C8     C     0.58633   0.56923   0.58496   0.00000  Uiso   1.00
H9     H     0.52680   0.60956   0.58289   0.00000  Uiso   1.00
H10    H     0.63862   0.52302   0.58242   0.00000  Uiso   1.00
C11    C     0.61537   0.40718   0.38771   0.00000  Uiso   1.00
C12    C     0.63962   0.38700   0.36507   0.00000  Uiso   1.00
C13    C     0.33163   0.63745   0.33838   0.00000  Uiso   1.00
C14    C     0.34106   0.63867   0.29611   0.00000  Uiso   1.00
C15    C     0.29442   0.65991   0.35499   0.00000  Uiso   1.00
C16    C     0.31365   0.66268   0.27056   0.00000  Uiso   1.00
H17    H     0.36988   0.62097   0.28302   0.00000  Uiso   1.00
C18    C     0.26647   0.68440   0.32999   0.00000  Uiso   1.00
H19    H     0.28700   0.65822   0.38802   0.00000  Uiso   1.00
C20    C     0.27691   0.68608   0.28694   0.00000  Uiso   1.00
C21    C     0.22636   0.70484   0.35169   0.00000  Uiso   1.00
O22    O     0.25183   0.70923   0.25855   0.00000  Uiso   1.00
N23    N     0.20159   0.73296   0.33554   0.00000  Uiso   1.00
C24    C     0.16788   0.75678   0.35968   0.00000  Uiso   1.00
H25    H     0.18975   0.77767   0.37825   0.00000  Uiso   1.00
C26    C     0.03122   0.97509   0.02905   0.00000  Uiso   1.00
C27    C     0.01298   0.94021   0.04482   0.00000  Uiso   1.00
C28    C     0.07578   0.98880   0.04458   0.00000  Uiso   1.00
C29    C     0.04023   0.91826   0.07258   0.00000  Uiso   1.00
H30    H     0.97733   0.92990   0.03531   0.00000  Uiso   1.00
C31    C     0.10301   0.96679   0.07236   0.00000  Uiso   1.00
H32    H     0.08955   0.01675   0.03495   0.00000  Uiso   1.00
C33    C     0.08550   0.93131   0.08604   0.00000  Uiso   1.00
H34    H     0.02599   0.89095   0.08380   0.00000  Uiso   1.00
H35    H     0.13788   0.97744   0.08343   0.00000  Uiso   1.00
C36    C     0.11398   0.09186   0.88579   0.00000  Uiso   1.00
C37    C     0.13786   0.11164   0.86246   0.00000  Uiso   1.00
C38    C     0.83365   0.86444   0.83502   0.00000  Uiso   1.00
C39    C     0.85326   0.85181   0.79761   0.00000  Uiso   1.00
C40    C     0.78657   0.85390   0.84598   0.00000  Uiso   1.00
C41    C     0.82669   0.82799   0.77082   0.00000  Uiso   1.00
H42    H     0.88989   0.86076   0.78917   0.00000  Uiso   1.00
C43    C     0.75935   0.83037   0.81980   0.00000  Uiso   1.00
H44    H     0.77107   0.86393   0.87503   0.00000  Uiso   1.00
C45    C     0.77894   0.81672   0.78261   0.00000  Uiso   1.00
O46    O     0.74856   0.79312   0.75876   0.00000  Uiso   1.00
H47    H     0.78103   0.69659   0.61645   0.00000  Uiso   1.00
C48    C     0.85121   0.81870   0.73103   0.00000  Uiso   1.00
H49    H     0.88489   0.83381   0.72408   0.00000  Uiso   1.00
N50    N     0.83603   0.20756   0.29457   0.00000  Uiso   1.00
C51    C     0.86494   0.22066   0.33004   0.00000  Uiso   1.00
H52    H     0.89400   0.24032   0.31833   0.00000  Uiso   1.00
Ag53   Ag    0.21947   0.24347   0.71965   0.00000  Uiso   1.00
C54    C     0.29132   0.18090   0.83193   0.00000  Uiso   1.00
C55    C     0.32412   0.33614   0.77495   0.00000  Uiso   1.00
C56    C     0.86430   0.73307   0.61108   0.00000  Uiso   1.00
C57    C     0.91035   0.75605   0.59997   0.00000  Uiso   1.00
C58    C     0.90073   0.79962   0.60172   0.00000  Uiso   1.00
C59    C     0.88853   0.81262   0.64606   0.00000  Uiso   1.00
H60    H     0.87511   0.70547   0.62627   0.00000  Uiso   1.00
H61    H     0.84354   0.72650   0.58224   0.00000  Uiso   1.00
H62    H     0.92245   0.74792   0.56817   0.00000  Uiso   1.00
H63    H     0.94014   0.74872   0.62211   0.00000  Uiso   1.00
H64    H     0.86979   0.80674   0.58068   0.00000  Uiso   1.00
H65    H     0.93361   0.81546   0.59070   0.00000  Uiso   1.00
H66    H     0.86317   0.83771   0.64471   0.00000  Uiso   1.00
H67    H     0.92266   0.82150   0.66216   0.00000  Uiso   1.00
H68    H     0.30763   0.19989   0.80777   0.00000  Uiso   1.00
H69    H     0.31415   0.15451   0.83532   0.00000  Uiso   1.00
H70    H     0.29036   0.19670   0.86199   0.00000  Uiso   1.00
H71    H     0.29916   0.31542   0.79062   0.00000  Uiso   1.00
H72    H     0.31874   0.36541   0.78847   0.00000  Uiso   1.00
H73    H     0.36251   0.32683   0.78004   0.00000  Uiso   1.00
C74    C     0.50000   0.50000   0.50000   0.00000  Uiso   1.00
C75    C     0.00000   0.00000   0.00000   0.00000  Uiso   1.00
loop_
_geom_bond_atom_site_label_1
_geom_bond_atom_site_label_2
_geom_bond_distance
_geom_bond_site_symmetry_2
_ccdc_geom_bond_type
C1     C74     1.530   .     S
C1     C2      1.398   .     A
C1     C3      1.399   .     A
C2     C4      1.387   .     A
C2     H5      1.081   .     S
C3     C6      1.388   .     A
C3     H7      1.081   .     S
C4     C8      1.386   .     A
C4     H9      1.082   .     S
C6     C8      1.387   .     A
C6     H10     1.082   .     S
C8     C11     1.437   4_566 S
C11    C12     1.206   .     T
C11    C8      1.437   4_566 S
C12    C13     1.437   2_665 S
C13    C14     1.383   .     S
C13    C15     1.386   .     D
C13    C12     1.437   2_665 S
C14    C16     1.386   .     D
C14    H17     1.082   .     S
C15    C18     1.394   .     S
C15    H19     1.082   .     S
C16    C20     1.392   .     S
C16    C55     1.491   4_566 S
C18    C20     1.414   .     D
C18    C21     1.479   .     S
C20    O22     1.393   .     S
C21    N23     1.292   .     D
C21    H47     1.082   3_656 S
O22    Ag53    1.985   4_566 S
N23    C24     1.459   .     S
N23    Ag53    2.011   4_566 S
C24    H25     1.111   .     S
C24    C51     1.523   2_665 S
C24    C56     1.525   3_656 S
C26    C27     1.399   .     A
C26    C28     1.399   .     A
C26    C75     1.529   1_565 S
C27    C29     1.387   .     A
C27    H30     1.081   1_455 S
C28    C31     1.388   .     A
C28    H32     1.081   1_565 S
C29    C33     1.386   .     A
C29    H34     1.082   .     S
H30    C27     1.081   1_655 S
C31    C33     1.387   .     A
C31    H35     1.082   .     S
H32    C28     1.081   1_545 S
C33    C36     1.437   4_566 S
C36    C37     1.206   .     T
C36    C33     1.437   4_566 S
C37    C38     1.437   2_665 S
C38    C39     1.386   .     S
C38    C40     1.383   .     D
C38    C37     1.437   2_665 S
C39    C41     1.395   .     D
C39    H42     1.082   .     S
C40    C43     1.386   .     S
C40    H44     1.082   .     S
C41    C45     1.414   .     S
C41    C48     1.479   .     S
C43    C45     1.392   .     D
C43    C54     1.491   2_665 S
C45    O46     1.393   .     S
O46    Ag53    1.985   2_665 S
H47    C21     1.082   3_656 S
C48    H49     1.082   .     S
C48    N50     1.293   4_566 D
N50    C51     1.459   .     S
N50    C48     1.293   4_566 D
N50    Ag53    2.012   3_656 S
C51    H52     1.111   .     S
C51    C24     1.523   2_665 S
C51    C59     1.525   4_566 S
Ag53   N23     2.011   4_566 S
Ag53   O22     1.985   4_566 S
Ag53   O46     1.985   2_665 S
Ag53   N50     2.012   3_656 S
C54    C43     1.491   2_665 S
C54    H68     1.110   .     S
C54    H69     1.110   .     S
C54    H70     1.110   .     S
C55    C16     1.491   4_566 S
C55    H71     1.110   .     S
C55    H72     1.110   .     S
C55    H73     1.110   .     S
C56    C57     1.530   .     S
C56    C24     1.525   3_656 S
C56    H60     1.110   .     S
C56    H61     1.110   .     S
C57    C58     1.528   .     S
C57    H62     1.110   .     S
C57    H63     1.111   .     S
C58    C59     1.530   .     S
C58    H64     1.110   .     S
C58    H65     1.110   .     S
C59    C51     1.525   4_566 S
C59    H66     1.110   .     S
C59    H67     1.110   .     S
C74    C1      1.530   2_665 S
C74    C1      1.530   3_656 S
C74    C1      1.530   4_566 S
C75    C26     1.529   1_545 S
C75    C26     1.529   2_565 S
C75    C26     1.529   3_545 S
C75    C26     1.529   4_565 S
