data_dAg12-nh2
_audit_creation_date              2025-09-02
_audit_creation_method            'Materials Studio'
_symmetry_space_group_name_H-M    'P222'
_symmetry_Int_Tables_number       16
_symmetry_cell_setting            orthorhombic
loop_
_symmetry_equiv_pos_as_xyz
  x,y,z
  -x,-y,z
  -x,y,-z
  x,-y,-z
_cell_length_a                    27.0918
_cell_length_b                    34.9343
_cell_length_c                    31.8388
_cell_angle_alpha                 90.0000
_cell_angle_beta                  90.0000
_cell_angle_gamma                 90.0000
loop_
_atom_site_label
_atom_site_type_symbol
_atom_site_fract_x
_atom_site_fract_y
_atom_site_fract_z
_atom_site_U_iso_or_equiv
_atom_site_adp_type
_atom_site_occupancy
C1     C     0.53150   0.52467   0.52928   0.00000  Uiso   1.00
C2     C     0.51313   0.55923   0.54499   0.00000  Uiso   1.00
C3     C     0.57669   0.51136   0.54472   0.00000  Uiso   1.00
C4     C     0.54102   0.58137   0.57228   0.00000  Uiso   1.00
H5     H     0.47700   0.56924   0.53562   0.00000  Uiso   1.00
C6     C     0.60457   0.53356   0.57204   0.00000  Uiso   1.00
H7     H     0.59057   0.48366   0.53519   0.00000  Uiso   1.00
C8     C     0.58706   0.56883   0.58537   0.00000  Uiso   1.00
H9     H     0.52678   0.60851   0.58328   0.00000  Uiso   1.00
H10    H     0.64002   0.52328   0.58288   0.00000  Uiso   1.00
C11    C     0.61637   0.40759   0.38734   0.00000  Uiso   1.00
C12    C     0.64076   0.38733   0.36475   0.00000  Uiso   1.00
C13    C     0.33046   0.63726   0.33812   0.00000  Uiso   1.00
C14    C     0.33983   0.63873   0.29547   0.00000  Uiso   1.00
C15    C     0.29336   0.65972   0.35521   0.00000  Uiso   1.00
C16    C     0.31251   0.66298   0.27004   0.00000  Uiso   1.00
H17    H     0.36857   0.62106   0.28202   0.00000  Uiso   1.00
C18    C     0.26552   0.68445   0.33030   0.00000  Uiso   1.00
H19    H     0.28598   0.65787   0.38855   0.00000  Uiso   1.00
C20    C     0.27598   0.68636   0.28687   0.00000  Uiso   1.00
C21    C     0.22551   0.70492   0.35247   0.00000  Uiso   1.00
O22    O     0.25111   0.70978   0.25848   0.00000  Uiso   1.00
N23    N     0.20104   0.73315   0.33651   0.00000  Uiso   1.00
C24    C     0.16766   0.75691   0.36126   0.00000  Uiso   1.00
H25    H     0.19028   0.77704   0.38020   0.00000  Uiso   1.00
C26    C     0.03146   0.97535   0.02931   0.00000  Uiso   1.00
C27    C     0.01292   0.94093   0.04526   0.00000  Uiso   1.00
C28    C     0.07653   0.98876   0.04491   0.00000  Uiso   1.00
C29    C     0.04035   0.91915   0.07322   0.00000  Uiso   1.00
H30    H     0.97688   0.93085   0.03571   0.00000  Uiso   1.00
C31    C     0.10397   0.96691   0.07289   0.00000  Uiso   1.00
H32    H     0.09055   0.01634   0.03517   0.00000  Uiso   1.00
C33    C     0.08614   0.93188   0.08672   0.00000  Uiso   1.00
H34    H     0.02588   0.89220   0.08455   0.00000  Uiso   1.00
H35    H     0.13925   0.97731   0.08398   0.00000  Uiso   1.00
C36    C     0.11484   0.09120   0.88501   0.00000  Uiso   1.00
C37    C     0.13881   0.11100   0.86161   0.00000  Uiso   1.00
C38    C     0.83269   0.86496   0.83416   0.00000  Uiso   1.00
C39    C     0.85251   0.85245   0.79643   0.00000  Uiso   1.00
C40    C     0.78547   0.85405   0.84549   0.00000  Uiso   1.00
C41    C     0.82603   0.82839   0.76972   0.00000  Uiso   1.00
H42    H     0.88924   0.86167   0.78769   0.00000  Uiso   1.00
C43    C     0.75837   0.83028   0.81937   0.00000  Uiso   1.00
H44    H     0.76980   0.86395   0.87479   0.00000  Uiso   1.00
C45    C     0.77820   0.81674   0.78194   0.00000  Uiso   1.00
O46    O     0.74787   0.79278   0.75832   0.00000  Uiso   1.00
H47    H     0.78201   0.69658   0.61545   0.00000  Uiso   1.00
C48    C     0.85068   0.81921   0.72953   0.00000  Uiso   1.00
H49    H     0.88429   0.83453   0.72220   0.00000  Uiso   1.00
N50    N     0.83577   0.20715   0.29597   0.00000  Uiso   1.00
C51    C     0.86503   0.22001   0.33175   0.00000  Uiso   1.00
H52    H     0.89493   0.23886   0.31983   0.00000  Uiso   1.00
Ag53   Ag    0.21938   0.24327   0.71899   0.00000  Uiso   1.00
N54    N     0.29019   0.18096   0.83119   0.00000  Uiso   1.00
N55    N     0.32233   0.33554   0.77386   0.00000  Uiso   1.00
C56    C     0.86526   0.73362   0.60947   0.00000  Uiso   1.00
C57    C     0.91108   0.75691   0.59777   0.00000  Uiso   1.00
C58    C     0.90029   0.79984   0.59901   0.00000  Uiso   1.00
C59    C     0.88783   0.81300   0.64361   0.00000  Uiso   1.00
H60    H     0.87693   0.70671   0.62514   0.00000  Uiso   1.00
H61    H     0.84435   0.72646   0.58053   0.00000  Uiso   1.00
H62    H     0.92334   0.74872   0.56574   0.00000  Uiso   1.00
H63    H     0.94143   0.75039   0.62009   0.00000  Uiso   1.00
H64    H     0.86881   0.80617   0.57778   0.00000  Uiso   1.00
H65    H     0.93301   0.81588   0.58757   0.00000  Uiso   1.00
H66    H     0.86155   0.83734   0.64200   0.00000  Uiso   1.00
H67    H     0.92208   0.82254   0.65963   0.00000  Uiso   1.00
H68    H     0.31069   0.19904   0.81178   0.00000  Uiso   1.00
H69    H     0.30556   0.17118   0.85927   0.00000  Uiso   1.00
H70    H     0.30205   0.31720   0.79315   0.00000  Uiso   1.00
H71    H     0.34978   0.35275   0.78697   0.00000  Uiso   1.00
C72    C     0.50000   0.50000   0.50000   0.00000  Uiso   1.00
C73    C     0.00000   0.00000   0.00000   0.00000  Uiso   1.00
loop_
_geom_bond_atom_site_label_1
_geom_bond_atom_site_label_2
_geom_bond_distance
_geom_bond_site_symmetry_2
_ccdc_geom_bond_type
C1     C72     1.530   .     S
C1     C2      1.398   .     A
C1     C3      1.399   .     A
C2     C4      1.387   .     A
C2     H5      1.081   .     S
C3     C6      1.389   .     A
C3     H7      1.081   .     S
C4     C8      1.386   .     A
C4     H9      1.082   .     S
C6     C8      1.387   .     A
C6     H10     1.082   .     S
C8     C11     1.437   4_566 S
C11    C12     1.206   .     T
C11    C8      1.437   4_566 S
C12    C13     1.437   2_665 S
C13    C14     1.383   .     S
C13    C15     1.386   .     D
C13    C12     1.437   2_665 S
C14    C16     1.386   .     D
C14    H17     1.082   .     S
C15    C18     1.394   .     S
C15    H19     1.082   .     S
C16    C20     1.391   .     S
C16    N55     1.424   4_566 S
C18    C20     1.413   .     D
C18    C21     1.478   .     S
C20    O22     1.393   .     S
C21    N23     1.292   .     D
C21    H47     1.081   3_656 S
O22    Ag53    1.986   4_566 S
N23    C24     1.459   .     S
N23    Ag53    2.012   4_566 S
C24    H25     1.111   .     S
C24    C51     1.522   2_665 S
C24    C56     1.525   3_656 S
C26    C27     1.399   .     A
C26    C28     1.399   .     A
C26    C73     1.529   1_565 S
C27    C29     1.387   .     A
C27    H30     1.081   1_455 S
C28    C31     1.389   .     A
C28    H32     1.081   1_565 S
C29    C33     1.386   .     A
C29    H34     1.082   .     S
H30    C27     1.081   1_655 S
C31    C33     1.387   .     A
C31    H35     1.082   .     S
H32    C28     1.081   1_545 S
C33    C36     1.437   4_566 S
C36    C37     1.206   .     T
C36    C33     1.437   4_566 S
C37    C38     1.437   2_665 S
C38    C39     1.387   .     S
C38    C40     1.383   .     D
C38    C37     1.437   2_665 S
C39    C41     1.395   .     D
C39    H42     1.082   .     S
C40    C43     1.386   .     S
C40    H44     1.082   .     S
C41    C45     1.413   .     S
C41    C48     1.478   .     S
C43    C45     1.390   .     D
C43    N54     1.424   2_665 S
C45    O46     1.393   .     S
O46    Ag53    1.986   2_665 S
H47    C21     1.081   3_656 S
C48    H49     1.082   .     S
C48    N50     1.293   4_566 D
N50    C51     1.459   .     S
N50    C48     1.293   4_566 D
N50    Ag53    2.013   3_656 S
C51    H52     1.111   .     S
C51    C24     1.522   2_665 S
C51    C59     1.525   4_566 S
Ag53   N23     2.012   4_566 S
Ag53   O22     1.986   4_566 S
Ag53   O46     1.986   2_665 S
Ag53   N50     2.013   3_656 S
N54    C43     1.424   2_665 S
N54    H68     1.044   .     S
N54    H69     1.044   .     S
N55    C16     1.424   4_566 S
N55    H70     1.044   .     S
N55    H71     1.044   .     S
C56    C57     1.530   .     S
C56    C24     1.525   3_656 S
C56    H60     1.110   .     S
C56    H61     1.110   .     S
C57    C58     1.528   .     S
C57    H62     1.110   .     S
C57    H63     1.110   .     S
C58    C59     1.530   .     S
C58    H64     1.111   .     S
C58    H65     1.110   .     S
C59    C51     1.525   4_566 S
C59    H66     1.110   .     S
C59    H67     1.110   .     S
C72    C1      1.530   2_665 S
C72    C1      1.530   3_656 S
C72    C1      1.530   4_566 S
C73    C26     1.529   1_545 S
C73    C26     1.529   2_565 S
C73    C26     1.529   3_545 S
C73    C26     1.529   4_565 S
