data_dAg13-f
_audit_creation_date              2025-09-02
_audit_creation_method            'Materials Studio'
_symmetry_space_group_name_H-M    'P-4N2'
_symmetry_Int_Tables_number       118
_symmetry_cell_setting            tetragonal
loop_
_symmetry_equiv_pos_as_xyz
  x,y,z
  -x,-y,z
  y,-x,-z
  -y,x,-z
  x+1/2,-y+1/2,z+1/2
  -x+1/2,y+1/2,z+1/2
  y+1/2,x+1/2,-z+1/2
  -y+1/2,-x+1/2,-z+1/2
_cell_length_a                    22.5365
_cell_length_b                    22.5365
_cell_length_c                    23.4064
_cell_angle_alpha                 90.0000
_cell_angle_beta                  90.0000
_cell_angle_gamma                 90.0000
loop_
_atom_site_label
_atom_site_type_symbol
_atom_site_fract_x
_atom_site_fract_y
_atom_site_fract_z
_atom_site_U_iso_or_equiv
_atom_site_adp_type
_atom_site_occupancy
C1     C     0.45707   0.44970   0.54430   0.00000  Uiso   1.00
C2     C     0.42809   0.41590   0.57285   0.00000  Uiso   1.00
C3     C     0.60689   0.62466   0.60617   0.00000  Uiso   1.00
C4     C     0.58926   0.68306   0.61202   0.00000  Uiso   1.00
C5     C     0.65916   0.60564   0.63139   0.00000  Uiso   1.00
C6     C     0.62389   0.72224   0.64308   0.00000  Uiso   1.00
H7     H     0.54868   0.69827   0.59214   0.00000  Uiso   1.00
C8     C     0.69478   0.64421   0.66299   0.00000  Uiso   1.00
H9     H     0.67263   0.55990   0.62587   0.00000  Uiso   1.00
C10    C     0.67631   0.70391   0.66903   0.00000  Uiso   1.00
C11    C     0.74987   0.61715   0.68528   0.00000  Uiso   1.00
O12    O     0.70730   0.74782   0.69859   0.00000  Uiso   1.00
N13    N     0.78711   0.64383   0.71854   0.00000  Uiso   1.00
H14    H     0.75815   0.57156   0.67356   0.00000  Uiso   1.00
C15    C     0.83815   0.61479   0.74484   0.00000  Uiso   1.00
H16    H     0.82394   0.59636   0.78667   0.00000  Uiso   1.00
H17    F     0.39356   0.22049   0.64839   0.00000  Uiso   1.00
C18    C     0.41626   0.96268   0.24190   0.00000  Uiso   1.00
C19    C     0.36485   0.93494   0.20893   0.00000  Uiso   1.00
H20    H     0.39899   0.98390   0.28135   0.00000  Uiso   1.00
H21    H     0.43741  -0.00261   0.21510   0.00000  Uiso   1.00
H22    H     0.38087   0.91710   0.16749   0.00000  Uiso   1.00
H23    H     0.33135   0.97001   0.20099   0.00000  Uiso   1.00
Si185  Si    0.50000   0.50000   0.50000   0.00000  Uiso   1.00
Zn187  Ag    0.22614   0.27386   0.75000   0.00000  Uiso   1.00
loop_
_geom_bond_atom_site_label_1
_geom_bond_atom_site_label_2
_geom_bond_distance
_geom_bond_site_symmetry_2
_ccdc_geom_bond_type
C1     Si185   1.816   .     S
C1     C2      1.206   .     T
C2     C3      1.437   2_665 S
C3     C4      1.382   .     S
C3     C5      1.386   .     D
C3     C2      1.437   2_665 S
C4     C6      1.385   .     D
C4     H7      1.082   .     S
C5     C8      1.395   .     S
C5     H9      1.082   .     S
C6     C10     1.391   .     S
C6     H17     1.355   2_665 S
C8     C10     1.415   .     D
C8     C11     1.479   .     S
C10    O12     1.395   .     S
C11    N13     1.293   .     D
C11    H14     1.080   .     S
O12    Zn187   1.984   2_665 S
N13    C15     1.460   .     S
N13    Zn187   2.018   2_665 S
C15    H16     1.111   .     S
C15    C15     1.519   8_666 S
C15    C19     1.525   5_565 S
H17    C6      1.355   2_665 S
C18    C19     1.526   .     S
C18    C18     1.527   7_455 S
C18    H20     1.110   .     S
C18    H21     1.110   1_565 S
C19    C15     1.525   5_464 S
C19    H22     1.110   .     S
C19    H23     1.109   .     S
H21    C18     1.110   1_545 S
Si185  C1      1.816   2_665 S
Si185  C1      1.816   3_566 S
Si185  C1      1.816   4_656 S
Zn187  O12     1.984   2_665 S
Zn187  O12     1.984   7_446 S
Zn187  N13     2.018   2_665 S
Zn187  N13     2.018   7_446 S
