data_dAg12-oh
_audit_creation_date              2025-09-02
_audit_creation_method            'Materials Studio'
_symmetry_space_group_name_H-M    'P222'
_symmetry_Int_Tables_number       16
_symmetry_cell_setting            orthorhombic
loop_
_symmetry_equiv_pos_as_xyz
  x,y,z
  -x,-y,z
  -x,y,-z
  x,-y,-z
_cell_length_a                    27.4180
_cell_length_b                    34.4069
_cell_length_c                    32.2882
_cell_angle_alpha                 90.0000
_cell_angle_beta                  90.0000
_cell_angle_gamma                 90.0000
loop_
_atom_site_label
_atom_site_type_symbol
_atom_site_fract_x
_atom_site_fract_y
_atom_site_fract_z
_atom_site_U_iso_or_equiv
_atom_site_adp_type
_atom_site_occupancy
C1     C     0.53116   0.52500   0.52888   0.00000  Uiso   1.00
C2     C     0.51313   0.56012   0.54442   0.00000  Uiso   1.00
C3     C     0.57569   0.51132   0.54420   0.00000  Uiso   1.00
C4     C     0.54064   0.58240   0.57156   0.00000  Uiso   1.00
H5     H     0.47751   0.57041   0.53510   0.00000  Uiso   1.00
C6     C     0.60319   0.53366   0.57135   0.00000  Uiso   1.00
H7     H     0.58931   0.48318   0.53476   0.00000  Uiso   1.00
C8     C     0.58597   0.56945   0.58464   0.00000  Uiso   1.00
H9     H     0.52662   0.60993   0.58251   0.00000  Uiso   1.00
H10    H     0.63809   0.52306   0.58216   0.00000  Uiso   1.00
C11    C     0.61482   0.40695   0.38801   0.00000  Uiso   1.00
C12    C     0.63890   0.38677   0.36532   0.00000  Uiso   1.00
C13    C     0.33258   0.63763   0.33852   0.00000  Uiso   1.00
C14    C     0.34210   0.63856   0.29648   0.00000  Uiso   1.00
C15    C     0.29547   0.66034   0.35478   0.00000  Uiso   1.00
C16    C     0.31485   0.66249   0.27081   0.00000  Uiso   1.00
H17    H     0.37084   0.62068   0.28368   0.00000  Uiso   1.00
C18    C     0.26771   0.68476   0.32964   0.00000  Uiso   1.00
H19    H     0.28798   0.65888   0.38765   0.00000  Uiso   1.00
C20    C     0.27824   0.68608   0.28681   0.00000  Uiso   1.00
C21    C     0.22774   0.70550   0.35100   0.00000  Uiso   1.00
O22    O     0.25337   0.70909   0.25825   0.00000  Uiso   1.00
N23    N     0.20295   0.73350   0.33460   0.00000  Uiso   1.00
C24    C     0.16936   0.75760   0.35843   0.00000  Uiso   1.00
H25    H     0.19117   0.77878   0.37661   0.00000  Uiso   1.00
C26    C     0.03114   0.97502   0.02890   0.00000  Uiso   1.00
C27    C     0.01303   0.93998   0.04456   0.00000  Uiso   1.00
C28    C     0.07555   0.98882   0.04434   0.00000  Uiso   1.00
C29    C     0.04027   0.91796   0.07213   0.00000  Uiso   1.00
H30    H     0.97750   0.92961   0.03511   0.00000  Uiso   1.00
C31    C     0.10277   0.96674   0.07191   0.00000  Uiso   1.00
H32    H     0.08921   0.01690   0.03476   0.00000  Uiso   1.00
C33    C     0.08540   0.93109   0.08549   0.00000  Uiso   1.00
H34    H     0.02614   0.89052   0.08327   0.00000  Uiso   1.00
H35    H     0.13754   0.97746   0.08289   0.00000  Uiso   1.00
C36    C     0.11393   0.09216   0.88660   0.00000  Uiso   1.00
C37    C     0.13789   0.11201   0.86349   0.00000  Uiso   1.00
C38    C     0.83355   0.86403   0.83629   0.00000  Uiso   1.00
C39    C     0.85275   0.85166   0.79882   0.00000  Uiso   1.00
C40    C     0.78682   0.85320   0.84750   0.00000  Uiso   1.00
C41    C     0.82609   0.82784   0.77220   0.00000  Uiso   1.00
H42    H     0.88911   0.86084   0.79018   0.00000  Uiso   1.00
C43    C     0.75952   0.82967   0.82146   0.00000  Uiso   1.00
H44    H     0.77167   0.86301   0.87660   0.00000  Uiso   1.00
C45    C     0.77869   0.81630   0.78423   0.00000  Uiso   1.00
O46    O     0.74819   0.79268   0.76062   0.00000  Uiso   1.00
H47    H     0.77955   0.69758   0.61718   0.00000  Uiso   1.00
C48    C     0.85020   0.81882   0.73240   0.00000  Uiso   1.00
H49    H     0.88374   0.83403   0.72545   0.00000  Uiso   1.00
N50    N     0.83490   0.20733   0.29323   0.00000  Uiso   1.00
C51    C     0.86352   0.22013   0.32878   0.00000  Uiso   1.00
H52    H     0.89251   0.24002   0.31745   0.00000  Uiso   1.00
Ag53   Ag    0.22050   0.24343   0.72070   0.00000  Uiso   1.00
O54    O     0.28747   0.18128   0.83269   0.00000  Uiso   1.00
O55    O     0.32438   0.33651   0.77148   0.00000  Uiso   1.00
C56    C     0.86257   0.73404   0.61213   0.00000  Uiso   1.00
C57    C     0.90846   0.75717   0.60118   0.00000  Uiso   1.00
C58    C     0.89896   0.80089   0.60347   0.00000  Uiso   1.00
C59    C     0.88701   0.81349   0.64776   0.00000  Uiso   1.00
H60    H     0.87338   0.70621   0.62692   0.00000  Uiso   1.00
H61    H     0.84175   0.72773   0.58342   0.00000  Uiso   1.00
H62    H     0.92038   0.74932   0.56941   0.00000  Uiso   1.00
H63    H     0.93826   0.74957   0.62302   0.00000  Uiso   1.00
H64    H     0.86804   0.80829   0.58271   0.00000  Uiso   1.00
H65    H     0.93172   0.81686   0.59258   0.00000  Uiso   1.00
H66    H     0.86177   0.83871   0.64679   0.00000  Uiso   1.00
H67    H     0.92113   0.82219   0.66379   0.00000  Uiso   1.00
H68    H     0.29705   0.16985   0.86041   0.00000  Uiso   1.00
H69    H     0.35186   0.35478   0.77918   0.00000  Uiso   1.00
C70    C     0.50000   0.50000   0.50000   0.00000  Uiso   1.00
C71    C     0.00000   0.00000   0.00000   0.00000  Uiso   1.00
loop_
_geom_bond_atom_site_label_1
_geom_bond_atom_site_label_2
_geom_bond_distance
_geom_bond_site_symmetry_2
_ccdc_geom_bond_type
C1     C70     1.530   .     S
C1     C2      1.399   .     A
C1     C3      1.399   .     A
C2     C4      1.387   .     A
C2     H5      1.081   .     S
C3     C6      1.388   .     A
C3     H7      1.081   .     S
C4     C8      1.386   .     A
C4     H9      1.082   .     S
C6     C8      1.387   .     A
C6     H10     1.082   .     S
C8     C11     1.437   4_566 S
C11    C12     1.206   .     T
C11    C8      1.437   4_566 S
C12    C13     1.437   2_665 S
C13    C14     1.383   .     S
C13    C15     1.386   .     D
C13    C12     1.437   2_665 S
C14    C16     1.387   .     D
C14    H17     1.082   .     S
C15    C18     1.394   .     S
C15    H19     1.082   .     S
C16    C20     1.391   .     S
C16    O55     1.390   4_566 S
C18    C20     1.413   .     D
C18    C21     1.478   .     S
C20    O22     1.393   .     S
C21    N23     1.293   .     D
C21    H47     1.082   3_656 S
O22    Ag53    1.986   4_566 S
N23    C24     1.459   .     S
N23    Ag53    2.012   4_566 S
C24    H25     1.111   .     S
C24    C51     1.522   2_665 S
C24    C56     1.525   3_656 S
C26    C27     1.399   .     A
C26    C28     1.399   .     A
C26    C71     1.529   1_565 S
C27    C29     1.387   .     A
C27    H30     1.081   1_455 S
C28    C31     1.388   .     A
C28    H32     1.081   1_565 S
C29    C33     1.386   .     A
C29    H34     1.082   .     S
H30    C27     1.081   1_655 S
C31    C33     1.387   .     A
C31    H35     1.082   .     S
H32    C28     1.081   1_545 S
C33    C36     1.437   4_566 S
C36    C37     1.206   .     T
C36    C33     1.437   4_566 S
C37    C38     1.437   2_665 S
C38    C39     1.386   .     S
C38    C40     1.382   .     D
C38    C37     1.437   2_665 S
C39    C41     1.394   .     D
C39    H42     1.082   .     S
C40    C43     1.387   .     S
C40    H44     1.082   .     S
C41    C45     1.413   .     S
C41    C48     1.478   .     S
C43    C45     1.390   .     D
C43    O54     1.390   2_665 S
C45    O46     1.393   .     S
O46    Ag53    1.985   2_665 S
H47    C21     1.082   3_656 S
C48    H49     1.082   .     S
C48    N50     1.293   4_566 D
N50    C51     1.459   .     S
N50    C48     1.293   4_566 D
N50    Ag53    2.013   3_656 S
C51    H52     1.111   .     S
C51    C24     1.522   2_665 S
C51    C59     1.525   4_566 S
Ag53   N23     2.012   4_566 S
Ag53   O22     1.986   4_566 S
Ag53   O46     1.985   2_665 S
Ag53   N50     2.013   3_656 S
O54    C43     1.390   2_665 S
O54    H68     1.012   .     S
O55    C16     1.390   4_566 S
O55    H69     1.012   .     S
C56    C57     1.530   .     S
C56    C24     1.525   3_656 S
C56    H60     1.110   .     S
C56    H61     1.110   .     S
C57    C58     1.528   .     S
C57    H62     1.110   .     S
C57    H63     1.110   .     S
C58    C59     1.530   .     S
C58    H64     1.110   .     S
C58    H65     1.110   .     S
C59    C51     1.525   4_566 S
C59    H66     1.110   .     S
C59    H67     1.110   .     S
C70    C1      1.530   2_665 S
C70    C1      1.530   3_656 S
C70    C1      1.530   4_566 S
C71    C26     1.529   1_545 S
C71    C26     1.529   2_565 S
C71    C26     1.529   3_545 S
C71    C26     1.529   4_565 S
