data_dAg10-oh
_audit_creation_date              2025-09-02
_audit_creation_method            'Materials Studio'
_symmetry_space_group_name_H-M    'P-4N2'
_symmetry_Int_Tables_number       118
_symmetry_cell_setting            tetragonal
loop_
_symmetry_equiv_pos_as_xyz
  x,y,z
  -x,-y,z
  y,-x,-z
  -y,x,-z
  x+1/2,-y+1/2,z+1/2
  -x+1/2,y+1/2,z+1/2
  y+1/2,x+1/2,-z+1/2
  -y+1/2,-x+1/2,-z+1/2
_cell_length_a                    33.1707
_cell_length_b                    33.1707
_cell_length_c                    20.9544
_cell_angle_alpha                 90.0000
_cell_angle_beta                  90.0000
_cell_angle_gamma                 90.0000
loop_
_atom_site_label
_atom_site_type_symbol
_atom_site_fract_x
_atom_site_fract_y
_atom_site_fract_z
_atom_site_U_iso_or_equiv
_atom_site_adp_type
_atom_site_occupancy
C1     C     0.54723   0.41156   0.36186   0.00000  Uiso   1.00
C2     C     0.57233   0.38582   0.32795   0.00000  Uiso   1.00
H3     H     0.51489   0.40954   0.35583   0.00000  Uiso   1.00
H4     H     0.55925   0.36437   0.29513   0.00000  Uiso   1.00
C5     C     0.62637   0.32070   0.28505   0.00000  Uiso   1.00
C6     C     0.65182   0.29292   0.25623   0.00000  Uiso   1.00
H7     H     0.59557   0.31226   0.29486   0.00000  Uiso   1.00
C8     C     0.74776   0.35589   0.24756   0.00000  Uiso   1.00
N9     N     0.77838   0.33226   0.24076   0.00000  Uiso   1.00
H10    H     0.75234   0.38822   0.24682   0.00000  Uiso   1.00
C11    C     0.81923   0.34787   0.23298   0.00000  Uiso   1.00
H12    H     0.82180   0.37876   0.25314   0.00000  Uiso   1.00
H13    H     0.82691   0.34866   0.18135   0.00000  Uiso   1.00
C14    C     0.10512   0.05823   0.91158   0.00000  Uiso   1.00
C15    C     0.13019   0.08400   0.87775   0.00000  Uiso   1.00
H16    H     0.11804   0.03683   0.94479   0.00000  Uiso   1.00
H17    H     0.16236   0.08261   0.88554   0.00000  Uiso   1.00
C18    C     0.18075   0.13186   0.78998   0.00000  Uiso   1.00
C19    C     0.20693   0.15948   0.76176   0.00000  Uiso   1.00
H20    H     0.19186   0.10216   0.80160   0.00000  Uiso   1.00
C21    C     0.56353   0.43935   0.40429   0.00000  Uiso   1.00
C22    C     0.61405   0.38745   0.33608   0.00000  Uiso   1.00
C23    C     0.64071   0.35843   0.30286   0.00000  Uiso   1.00
C24    C     0.69213   0.30191   0.24557   0.00000  Uiso   1.00
O25    O     0.71541   0.27178   0.21760   0.00000  Uiso   1.00
Si26   Si    0.46989   0.52861   0.45339   0.00000  Uiso   1.00
O27    O     0.49872   0.55065   0.49996   0.00000  Uiso   1.00
O28    O     0.63731   0.25511   0.23911   0.00000  Uiso   1.00
H29    H     0.60768   0.25218   0.24973   0.00000  Uiso   1.00
Ag30   Ag    0.77141   0.27141   0.25000   0.00000  Uiso   1.00
O31    O     0.50000   0.50000   0.41931   0.00000  Uiso   1.00
loop_
_geom_bond_atom_site_label_1
_geom_bond_atom_site_label_2
_geom_bond_distance
_geom_bond_site_symmetry_2
_ccdc_geom_bond_type
C1     C21     1.390   .     A
C1     C2      1.388   .     A
C1     H3      1.082   .     S
C2     C22     1.395   .     A
C2     H4      1.081   .     S
C5     C23     1.390   .     A
C5     C6      1.388   .     A
C5     H7      1.079   .     S
C6     C24     1.388   .     A
C6     O28     1.390   .     S
C8     N9      1.291   .     D
C8     H10     1.083   .     S
C8     C19     1.477   5_554 S
N9     Ag30    2.041   .     S
N9     C11     1.460   .     S
C11    H12     1.112   .     S
C11    H13     1.112   .     S
C11    C11     1.521   7_545 S
C14    C21     1.391   5_455 A
C14    C15     1.387   .     A
C14    H16     1.082   .     S
C15    C22     1.395   5_455 A
C15    H17     1.081   .     S
C18    C23     1.393   5_455 A
C18    C19     1.394   .     A
C18    H20     1.080   .     S
C19    C24     1.413   5_455 A
C19    C8      1.477   5_455 S
C21    C14     1.391   5_554 A
C21    Si26    1.848   2_665 S
C22    C15     1.395   5_554 A
C22    C23     1.481   .     S
C23    C18     1.393   5_554 A
C24    C19     1.413   5_554 A
C24    O25     1.392   .     S
O25    Ag30    1.978   .     S
Si26   O31     1.552   .     S
Si26   O27     1.550   4_656 S
Si26   C21     1.848   2_665 S
O27    Si26    1.550   3_566 S
O28    H29     1.012   .     S
Ag30   N9      2.041   7_545 S
Ag30   O25     1.978   7_545 S
O31    Si26    1.552   2_665 S
