data_dAg12-f
_audit_creation_date              2025-09-02
_audit_creation_method            'Materials Studio'
_symmetry_space_group_name_H-M    'P222'
_symmetry_Int_Tables_number       16
_symmetry_cell_setting            orthorhombic
loop_
_symmetry_equiv_pos_as_xyz
  x,y,z
  -x,-y,z
  -x,y,-z
  x,-y,-z
_cell_length_a                    27.2758
_cell_length_b                    34.6203
_cell_length_c                    32.0833
_cell_angle_alpha                 90.0000
_cell_angle_beta                  90.0000
_cell_angle_gamma                 90.0000
loop_
_atom_site_label
_atom_site_type_symbol
_atom_site_fract_x
_atom_site_fract_y
_atom_site_fract_z
_atom_site_U_iso_or_equiv
_atom_site_adp_type
_atom_site_occupancy
C1     C     0.53131   0.52485   0.52906   0.00000  Uiso   1.00
C2     C     0.51315   0.55973   0.54471   0.00000  Uiso   1.00
C3     C     0.57610   0.51127   0.54445   0.00000  Uiso   1.00
C4     C     0.54082   0.58189   0.57199   0.00000  Uiso   1.00
H5     H     0.47734   0.56994   0.53535   0.00000  Uiso   1.00
C6     C     0.60375   0.53349   0.57174   0.00000  Uiso   1.00
H7     H     0.58980   0.48331   0.53494   0.00000  Uiso   1.00
C8     C     0.58641   0.56905   0.58511   0.00000  Uiso   1.00
H9     H     0.52672   0.60925   0.58301   0.00000  Uiso   1.00
H10    H     0.63887   0.52300   0.58256   0.00000  Uiso   1.00
C11    C     0.61546   0.40741   0.38751   0.00000  Uiso   1.00
C12    C     0.63971   0.38723   0.36485   0.00000  Uiso   1.00
C13    C     0.33159   0.63725   0.33816   0.00000  Uiso   1.00
C14    C     0.34081   0.63832   0.29580   0.00000  Uiso   1.00
C15    C     0.29467   0.65999   0.35490   0.00000  Uiso   1.00
C16    C     0.31347   0.66242   0.27036   0.00000  Uiso   1.00
H17    H     0.36938   0.62047   0.28254   0.00000  Uiso   1.00
C18    C     0.26686   0.68462   0.32993   0.00000  Uiso   1.00
H19    H     0.28741   0.65842   0.38802   0.00000  Uiso   1.00
C20    C     0.27710   0.68611   0.28678   0.00000  Uiso   1.00
C21    C     0.22712   0.70542   0.35180   0.00000  Uiso   1.00
O22    O     0.25219   0.70937   0.25836   0.00000  Uiso   1.00
N23    N     0.20258   0.73363   0.33567   0.00000  Uiso   1.00
C24    C     0.16932   0.75774   0.35998   0.00000  Uiso   1.00
H25    H     0.19166   0.77850   0.37830   0.00000  Uiso   1.00
C26    C     0.03130   0.97517   0.02908   0.00000  Uiso   1.00
C27    C     0.01310   0.94033   0.04484   0.00000  Uiso   1.00
C28    C     0.07598   0.98885   0.04460   0.00000  Uiso   1.00
C29    C     0.04051   0.91843   0.07255   0.00000  Uiso   1.00
H30    H     0.97738   0.93003   0.03534   0.00000  Uiso   1.00
C31    C     0.10336   0.96688   0.07232   0.00000  Uiso   1.00
H32    H     0.08973   0.01675   0.03496   0.00000  Uiso   1.00
C33    C     0.08590   0.93145   0.08598   0.00000  Uiso   1.00
H34    H     0.02631   0.89116   0.08375   0.00000  Uiso   1.00
H35    H     0.13834   0.97751   0.08334   0.00000  Uiso   1.00
C36    C     0.11456   0.09169   0.88595   0.00000  Uiso   1.00
C37    C     0.13856   0.11147   0.86269   0.00000  Uiso   1.00
C38    C     0.83286   0.86458   0.83534   0.00000  Uiso   1.00
C39    C     0.85226   0.85225   0.79767   0.00000  Uiso   1.00
C40    C     0.78595   0.85363   0.84665   0.00000  Uiso   1.00
C41    C     0.82566   0.82831   0.77099   0.00000  Uiso   1.00
H42    H     0.88873   0.86151   0.78894   0.00000  Uiso   1.00
C43    C     0.75878   0.83004   0.82055   0.00000  Uiso   1.00
H44    H     0.77052   0.86336   0.87589   0.00000  Uiso   1.00
C45    C     0.77812   0.81663   0.78316   0.00000  Uiso   1.00
O46    O     0.74771   0.79283   0.75954   0.00000  Uiso   1.00
H47    H     0.78015   0.69735   0.61622   0.00000  Uiso   1.00
C48    C     0.84994   0.81931   0.73095   0.00000  Uiso   1.00
H49    H     0.88342   0.83468   0.72378   0.00000  Uiso   1.00
N50    N     0.83482   0.20695   0.29464   0.00000  Uiso   1.00
C51    C     0.86359   0.21966   0.33042   0.00000  Uiso   1.00
H52    H     0.89306   0.23910   0.31899   0.00000  Uiso   1.00
Zn53   Ag    0.22028   0.24321   0.71984   0.00000  Uiso   1.00
H54    F     0.28711   0.18065   0.83187   0.00000  Uiso   1.00
H55    F     0.32276   0.33660   0.77111   0.00000  Uiso   1.00
C56    C     0.86291   0.73445   0.61038   0.00000  Uiso   1.00
C57    C     0.90872   0.75772   0.59911   0.00000  Uiso   1.00
C58    C     0.89864   0.80110   0.60112   0.00000  Uiso   1.00
C59    C     0.88663   0.81381   0.64564   0.00000  Uiso   1.00
H60    H     0.87416   0.70692   0.62534   0.00000  Uiso   1.00
H61    H     0.84191   0.72793   0.58159   0.00000  Uiso   1.00
H62    H     0.92069   0.74982   0.56715   0.00000  Uiso   1.00
H63    H     0.93882   0.75052   0.62107   0.00000  Uiso   1.00
H64    H     0.86739   0.80809   0.58026   0.00000  Uiso   1.00
H65    H     0.93133   0.81716   0.58997   0.00000  Uiso   1.00
H66    H     0.86089   0.83863   0.64455   0.00000  Uiso   1.00
H67    H     0.92085   0.82287   0.66161   0.00000  Uiso   1.00
C269   C     0.50000   0.50000   0.50000   0.00000  Uiso   1.00
C270   C     0.00000   0.00000   0.00000   0.00000  Uiso   1.00
loop_
_geom_bond_atom_site_label_1
_geom_bond_atom_site_label_2
_geom_bond_distance
_geom_bond_site_symmetry_2
_ccdc_geom_bond_type
C1     C269    1.529   .     S
C1     C2      1.398   .     A
C1     C3      1.399   .     A
C2     C4      1.387   .     A
C2     H5      1.081   .     S
C3     C6      1.388   .     A
C3     H7      1.081   .     S
C4     C8      1.386   .     A
C4     H9      1.082   .     S
C6     C8      1.387   .     A
C6     H10     1.082   .     S
C8     C11     1.437   4_566 S
C11    C12     1.206   .     T
C11    C8      1.437   4_566 S
C12    C13     1.437   2_665 S
C13    C14     1.383   .     S
C13    C15     1.386   .     D
C13    C12     1.437   2_665 S
C14    C16     1.385   .     D
C14    H17     1.082   .     S
C15    C18     1.394   .     S
C15    H19     1.082   .     S
C16    C20     1.391   .     S
C16    H55     1.355   4_566 S
C18    C20     1.413   .     D
C18    C21     1.478   .     S
C20    O22     1.393   .     S
C21    N23     1.292   .     D
C21    H47     1.082   3_656 S
O22    Zn53    1.985   4_566 S
N23    C24     1.459   .     S
N23    Zn53    2.012   4_566 S
C24    H25     1.111   .     S
C24    C51     1.522   2_665 S
C24    C56     1.525   3_656 S
C26    C27     1.399   .     A
C26    C28     1.399   .     A
C26    C270    1.529   1_565 S
C27    C29     1.387   .     A
C27    H30     1.081   1_455 S
C28    C31     1.388   .     A
C28    H32     1.081   1_565 S
C29    C33     1.386   .     A
C29    H34     1.082   .     S
H30    C27     1.081   1_655 S
C31    C33     1.387   .     A
C31    H35     1.082   .     S
H32    C28     1.081   1_545 S
C33    C36     1.437   4_566 S
C36    C37     1.206   .     T
C36    C33     1.437   4_566 S
C37    C38     1.437   2_665 S
C38    C39     1.387   .     S
C38    C40     1.383   .     D
C38    C37     1.437   2_665 S
C39    C41     1.395   .     D
C39    H42     1.082   .     S
C40    C43     1.385   .     S
C40    H44     1.082   .     S
C41    C45     1.413   .     S
C41    C48     1.478   .     S
C43    C45     1.390   .     D
C43    H54     1.355   2_665 S
C45    O46     1.393   .     S
O46    Zn53    1.985   2_665 S
H47    C21     1.082   3_656 S
C48    H49     1.082   .     S
C48    N50     1.293   4_566 D
N50    C51     1.459   .     S
N50    C48     1.293   4_566 D
N50    Zn53    2.013   3_656 S
C51    H52     1.111   .     S
C51    C24     1.522   2_665 S
C51    C59     1.525   4_566 S
Zn53   N23     2.012   4_566 S
Zn53   O22     1.985   4_566 S
Zn53   O46     1.985   2_665 S
Zn53   N50     2.013   3_656 S
H54    C43     1.355   2_665 S
H55    C16     1.355   4_566 S
C56    C57     1.530   .     S
C56    C24     1.525   3_656 S
C56    H60     1.110   .     S
C56    H61     1.110   .     S
C57    C58     1.528   .     S
C57    H62     1.110   .     S
C57    H63     1.110   .     S
C58    C59     1.530   .     S
C58    H64     1.111   .     S
C58    H65     1.110   .     S
C59    C51     1.525   4_566 S
C59    H66     1.110   .     S
C59    H67     1.110   .     S
C269   C1      1.529   2_665 S
C269   C1      1.529   3_656 S
C269   C1      1.529   4_566 S
C270   C26     1.529   1_545 S
C270   C26     1.529   2_565 S
C270   C26     1.529   3_545 S
C270   C26     1.529   4_565 S
