data_dAg13-ch3
_audit_creation_date              2025-09-02
_audit_creation_method            'Materials Studio'
_symmetry_space_group_name_H-M    'P-4N2'
_symmetry_Int_Tables_number       118
_symmetry_cell_setting            tetragonal
loop_
_symmetry_equiv_pos_as_xyz
  x,y,z
  -x,-y,z
  y,-x,-z
  -y,x,-z
  x+1/2,-y+1/2,z+1/2
  -x+1/2,y+1/2,z+1/2
  y+1/2,x+1/2,-z+1/2
  -y+1/2,-x+1/2,-z+1/2
_cell_length_a                    22.5328
_cell_length_b                    22.5328
_cell_length_c                    23.4059
_cell_angle_alpha                 90.0000
_cell_angle_beta                  90.0000
_cell_angle_gamma                 90.0000
loop_
_atom_site_label
_atom_site_type_symbol
_atom_site_fract_x
_atom_site_fract_y
_atom_site_fract_z
_atom_site_U_iso_or_equiv
_atom_site_adp_type
_atom_site_occupancy
C1     C     0.45693   0.44977   0.54428   0.00000  Uiso   1.00
C2     C     0.42785   0.41598   0.57277   0.00000  Uiso   1.00
C3     C     0.60724   0.62457   0.60600   0.00000  Uiso   1.00
C4     C     0.58975   0.68307   0.61167   0.00000  Uiso   1.00
C5     C     0.65944   0.60547   0.63130   0.00000  Uiso   1.00
C6     C     0.62449   0.72235   0.64270   0.00000  Uiso   1.00
H7     H     0.54919   0.69812   0.59162   0.00000  Uiso   1.00
C8     C     0.69514   0.64402   0.66282   0.00000  Uiso   1.00
H9     H     0.67279   0.55968   0.62591   0.00000  Uiso   1.00
C10    C     0.67685   0.70381   0.66869   0.00000  Uiso   1.00
C11    C     0.75018   0.61691   0.68520   0.00000  Uiso   1.00
O12    O     0.70798   0.74770   0.69815   0.00000  Uiso   1.00
N13    N     0.78736   0.64356   0.71854   0.00000  Uiso   1.00
H14    H     0.75843   0.57131   0.67348   0.00000  Uiso   1.00
C15    C     0.83839   0.61453   0.74488   0.00000  Uiso   1.00
H16    H     0.82418   0.59617   0.78673   0.00000  Uiso   1.00
C17    C     0.39408   0.21447   0.64868   0.00000  Uiso   1.00
C18    C     0.41650   0.96296   0.24200   0.00000  Uiso   1.00
C19    C     0.36504   0.93528   0.20904   0.00000  Uiso   1.00
H20    H     0.39925   0.98403   0.28154   0.00000  Uiso   1.00
H21    H     0.43758  -0.00223   0.21527   0.00000  Uiso   1.00
H22    H     0.38100   0.91754   0.16753   0.00000  Uiso   1.00
H23    H     0.33153   0.97037   0.20122   0.00000  Uiso   1.00
H24    H     0.39995   0.20372   0.69460   0.00000  Uiso   1.00
H25    H     0.43657   0.20674   0.62589   0.00000  Uiso   1.00
H26    H     0.35937   0.18523   0.63029   0.00000  Uiso   1.00
Si27   Si    0.50000   0.50000   0.50000   0.00000  Uiso   1.00
Ag28   Ag    0.22587   0.27413   0.75000   0.00000  Uiso   1.00
loop_
_geom_bond_atom_site_label_1
_geom_bond_atom_site_label_2
_geom_bond_distance
_geom_bond_site_symmetry_2
_ccdc_geom_bond_type
C1     Si27    1.816   .     S
C1     C2      1.206   .     T
C2     C3      1.437   2_665 S
C3     C4      1.382   .     S
C3     C5      1.385   .     D
C3     C2      1.437   2_665 S
C4     C6      1.387   .     D
C4     H7      1.082   .     S
C5     C8      1.395   .     S
C5     H9      1.082   .     S
C6     C10     1.392   .     S
C6     C17     1.491   2_665 S
C8     C10     1.415   .     D
C8     C11     1.478   .     S
C10    O12     1.395   .     S
C11    N13     1.293   .     D
C11    H14     1.080   .     S
O12    Ag28    1.984   2_665 S
N13    C15     1.460   .     S
N13    Ag28    2.018   2_665 S
C15    H16     1.111   .     S
C15    C15     1.519   8_666 S
C15    C19     1.525   5_565 S
C17    C6      1.491   2_665 S
C17    H24     1.110   .     S
C17    H25     1.110   .     S
C17    H26     1.110   .     S
C18    C19     1.526   .     S
C18    C18     1.527   7_455 S
C18    H20     1.110   .     S
C18    H21     1.110   1_565 S
C19    C15     1.525   5_464 S
C19    H22     1.110   .     S
C19    H23     1.109   .     S
H21    C18     1.110   1_545 S
Si27   C1      1.816   2_665 S
Si27   C1      1.816   3_566 S
Si27   C1      1.816   4_656 S
Ag28   O12     1.984   2_665 S
Ag28   O12     1.984   7_446 S
Ag28   N13     2.018   2_665 S
Ag28   N13     2.018   7_446 S
