data_dAg13-oh
_audit_creation_date              2025-09-02
_audit_creation_method            'Materials Studio'
_symmetry_space_group_name_H-M    'P-4N2'
_symmetry_Int_Tables_number       118
_symmetry_cell_setting            tetragonal
loop_
_symmetry_equiv_pos_as_xyz
  x,y,z
  -x,-y,z
  y,-x,-z
  -y,x,-z
  x+1/2,-y+1/2,z+1/2
  -x+1/2,y+1/2,z+1/2
  y+1/2,x+1/2,-z+1/2
  -y+1/2,-x+1/2,-z+1/2
_cell_length_a                    22.4640
_cell_length_b                    22.4640
_cell_length_c                    23.5373
_cell_angle_alpha                 90.0000
_cell_angle_beta                  90.0000
_cell_angle_gamma                 90.0000
loop_
_atom_site_label
_atom_site_type_symbol
_atom_site_fract_x
_atom_site_fract_y
_atom_site_fract_z
_atom_site_U_iso_or_equiv
_atom_site_adp_type
_atom_site_occupancy
C1     C     0.45691   0.44951   0.54404   0.00000  Uiso   1.00
C2     C     0.42780   0.41561   0.57241   0.00000  Uiso   1.00
C3     C     0.60737   0.62502   0.60554   0.00000  Uiso   1.00
C4     C     0.59011   0.68379   0.61095   0.00000  Uiso   1.00
C5     C     0.65949   0.60572   0.63103   0.00000  Uiso   1.00
C6     C     0.62479   0.72309   0.64186   0.00000  Uiso   1.00
H7     H     0.54969   0.69931   0.59083   0.00000  Uiso   1.00
C8     C     0.69526   0.64434   0.66249   0.00000  Uiso   1.00
H9     H     0.67274   0.55973   0.62583   0.00000  Uiso   1.00
C10    C     0.67710   0.70437   0.66818   0.00000  Uiso   1.00
C11    C     0.75034   0.61703   0.68488   0.00000  Uiso   1.00
O12    O     0.70835   0.74822   0.69771   0.00000  Uiso   1.00
N13    N     0.78753   0.64363   0.71823   0.00000  Uiso   1.00
H14    H     0.75863   0.57132   0.67314   0.00000  Uiso   1.00
C15    C     0.83854   0.61432   0.74455   0.00000  Uiso   1.00
H16    H     0.82397   0.59552   0.78591   0.00000  Uiso   1.00
H17    O     0.39320   0.21791   0.64657   0.00000  Uiso   1.00
C18    C     0.41692   0.96336   0.24162   0.00000  Uiso   1.00
C19    C     0.36560   0.93529   0.20868   0.00000  Uiso   1.00
H20    H     0.39930   0.98494   0.28059   0.00000  Uiso   1.00
H21    H     0.43832  -0.00201   0.21489   0.00000  Uiso   1.00
H22    H     0.38199   0.91709   0.16771   0.00000  Uiso   1.00
H23    H     0.33207   0.97042   0.20030   0.00000  Uiso   1.00
H      H     0.36415   0.19393   0.67017   0.00000  Uiso   1.00
Si185  Si    0.50000   0.50000   0.50000   0.00000  Uiso   1.00
Zn187  Ag    0.22597   0.27403   0.75000   0.00000  Uiso   1.00
loop_
_geom_bond_atom_site_label_1
_geom_bond_atom_site_label_2
_geom_bond_distance
_geom_bond_site_symmetry_2
_ccdc_geom_bond_type
C1     Si185   1.816   .     S
C1     C2      1.206   .     T
C2     C3      1.437   2_665 S
C3     C4      1.382   .     S
C3     C5      1.385   .     D
C3     C2      1.437   2_665 S
C4     C6      1.384   .     D
C4     H7      1.082   .     S
C5     C8      1.395   .     S
C5     H9      1.082   .     S
C6     C10     1.393   .     S
C6     H17     1.390   2_665 S
C8     C10     1.415   .     D
C8     C11     1.478   .     S
C10    O12     1.395   .     S
C11    N13     1.293   .     D
C11    H14     1.080   .     S
O12    Zn187   1.985   2_665 S
N13    C15     1.460   .     S
N13    Zn187   2.018   2_665 S
C15    H16     1.111   .     S
C15    C15     1.519   8_666 S
C15    C19     1.525   5_565 S
H17    C6      1.390   2_665 S
H17    H       1.012   .     S
C18    C19     1.526   .     S
C18    C18     1.527   7_455 S
C18    H20     1.110   .     S
C18    H21     1.110   1_565 S
C19    C15     1.525   5_464 S
C19    H22     1.110   .     S
C19    H23     1.109   .     S
H21    C18     1.110   1_545 S
Si185  C1      1.816   2_665 S
Si185  C1      1.816   3_566 S
Si185  C1      1.816   4_656 S
Zn187  O12     1.985   2_665 S
Zn187  O12     1.985   7_446 S
Zn187  N13     2.018   2_665 S
Zn187  N13     2.018   7_446 S
