data_dAg10-f
_audit_creation_date              2025-09-02
_audit_creation_method            'Materials Studio'
_symmetry_space_group_name_H-M    'P-4N2'
_symmetry_Int_Tables_number       118
_symmetry_cell_setting            tetragonal
loop_
_symmetry_equiv_pos_as_xyz
  x,y,z
  -x,-y,z
  y,-x,-z
  -y,x,-z
  x+1/2,-y+1/2,z+1/2
  -x+1/2,y+1/2,z+1/2
  y+1/2,x+1/2,-z+1/2
  -y+1/2,-x+1/2,-z+1/2
_cell_length_a                    33.0680
_cell_length_b                    33.0680
_cell_length_c                    21.3363
_cell_angle_alpha                 90.0000
_cell_angle_beta                  90.0000
_cell_angle_gamma                 90.0000
loop_
_atom_site_label
_atom_site_type_symbol
_atom_site_fract_x
_atom_site_fract_y
_atom_site_fract_z
_atom_site_U_iso_or_equiv
_atom_site_adp_type
_atom_site_occupancy
C1     C     0.54685   0.41106   0.36431   0.00000  Uiso   1.00
C2     C     0.57189   0.38534   0.33059   0.00000  Uiso   1.00
H3     H     0.51439   0.40900   0.35879   0.00000  Uiso   1.00
H4     H     0.55863   0.36384   0.29844   0.00000  Uiso   1.00
C5     C     0.62600   0.32040   0.28682   0.00000  Uiso   1.00
C6     C     0.65142   0.29284   0.25777   0.00000  Uiso   1.00
H7     H     0.59517   0.31173   0.29665   0.00000  Uiso   1.00
C8     C     0.74757   0.35608   0.24907   0.00000  Uiso   1.00
N9     N     0.77827   0.33244   0.24174   0.00000  Uiso   1.00
H10    H     0.75213   0.38851   0.24871   0.00000  Uiso   1.00
C11    C     0.81919   0.34817   0.23378   0.00000  Uiso   1.00
H12    H     0.82190   0.37900   0.25413   0.00000  Uiso   1.00
H13    H     0.82657   0.34937   0.18299   0.00000  Uiso   1.00
C14    C     0.10513   0.05859   0.91246   0.00000  Uiso   1.00
C15    C     0.13013   0.08435   0.87882   0.00000  Uiso   1.00
H16    H     0.11823   0.03712   0.94492   0.00000  Uiso   1.00
H17    H     0.16245   0.08289   0.88602   0.00000  Uiso   1.00
C18    C     0.18051   0.13195   0.79165   0.00000  Uiso   1.00
C19    C     0.20669   0.15946   0.76325   0.00000  Uiso   1.00
H20    H     0.19166   0.10220   0.80330   0.00000  Uiso   1.00
C21    C     0.56338   0.43893   0.40581   0.00000  Uiso   1.00
C22    C     0.61378   0.38707   0.33797   0.00000  Uiso   1.00
C23    C     0.64041   0.35817   0.30467   0.00000  Uiso   1.00
C24    C     0.69180   0.30190   0.24694   0.00000  Uiso   1.00
O25    O     0.71505   0.27187   0.21875   0.00000  Uiso   1.00
Si26   Si    0.46993   0.52884   0.45422   0.00000  Uiso   1.00
O27    O     0.49895   0.55082   0.49996   0.00000  Uiso   1.00
F28    F     0.63695   0.25601   0.24127   0.00000  Uiso   1.00
Ag29   Ag    0.77136   0.27136   0.25000   0.00000  Uiso   1.00
O30    O     0.50000   0.50000   0.42079   0.00000  Uiso   1.00
loop_
_geom_bond_atom_site_label_1
_geom_bond_atom_site_label_2
_geom_bond_distance
_geom_bond_site_symmetry_2
_ccdc_geom_bond_type
C1     C21     1.390   .     A
C1     C2      1.388   .     A
C1     H3      1.082   .     S
C2     C22     1.395   .     A
C2     H4      1.081   .     S
C5     C23     1.390   .     A
C5     C6      1.386   .     A
C5     H7      1.080   .     S
C6     C24     1.388   .     A
C6     F28     1.355   .     S
C8     N9      1.291   .     D
C8     H10     1.083   .     S
C8     C19     1.477   5_554 S
N9     Ag29    2.040   .     S
N9     C11     1.460   .     S
C11    H12     1.112   .     S
C11    H13     1.112   .     S
C11    C11     1.522   7_545 S
C14    C21     1.390   5_455 A
C14    C15     1.387   .     A
C14    H16     1.082   .     S
C15    C22     1.395   5_455 A
C15    H17     1.081   .     S
C18    C23     1.394   5_455 A
C18    C19     1.394   .     A
C18    H20     1.080   .     S
C19    C24     1.413   5_455 A
C19    C8      1.477   5_455 S
C21    C14     1.390   5_554 A
C21    Si26    1.848   2_665 S
C22    C15     1.395   5_554 A
C22    C23     1.481   .     S
C23    C18     1.394   5_554 A
C24    C19     1.413   5_554 A
C24    O25     1.392   .     S
O25    Ag29    1.978   .     S
Si26   O30     1.551   .     S
Si26   O27     1.550   4_656 S
Si26   C21     1.848   2_665 S
O27    Si26    1.550   3_566 S
Ag29   N9      2.040   7_545 S
Ag29   O25     1.978   7_545 S
O30    Si26    1.551   2_665 S
