data_dAg10-ch3
_audit_creation_date              2025-09-02
_audit_creation_method            'Materials Studio'
_symmetry_space_group_name_H-M    'P-4N2'
_symmetry_Int_Tables_number       118
_symmetry_cell_setting            tetragonal
loop_
_symmetry_equiv_pos_as_xyz
  x,y,z
  -x,-y,z
  y,-x,-z
  -y,x,-z
  x+1/2,-y+1/2,z+1/2
  -x+1/2,y+1/2,z+1/2
  y+1/2,x+1/2,-z+1/2
  -y+1/2,-x+1/2,-z+1/2
_cell_length_a                    33.2547
_cell_length_b                    33.2547
_cell_length_c                    20.6100
_cell_angle_alpha                 90.0000
_cell_angle_beta                  90.0000
_cell_angle_gamma                 90.0000
loop_
_atom_site_label
_atom_site_type_symbol
_atom_site_fract_x
_atom_site_fract_y
_atom_site_fract_z
_atom_site_U_iso_or_equiv
_atom_site_adp_type
_atom_site_occupancy
C1     C     0.54745   0.41138   0.36036   0.00000  Uiso   1.00
C2     C     0.57264   0.38560   0.32637   0.00000  Uiso   1.00
H3     H     0.51520   0.40910   0.35431   0.00000  Uiso   1.00
H4     H     0.55971   0.36388   0.29341   0.00000  Uiso   1.00
C5     C     0.62689   0.32065   0.28394   0.00000  Uiso   1.00
C6     C     0.65244   0.29286   0.25520   0.00000  Uiso   1.00
H7     H     0.59617   0.31223   0.29402   0.00000  Uiso   1.00
C8     C     0.74802   0.35587   0.24610   0.00000  Uiso   1.00
N9     N     0.77862   0.33229   0.23991   0.00000  Uiso   1.00
H10    H     0.75257   0.38812   0.24491   0.00000  Uiso   1.00
C11    C     0.81941   0.34781   0.23231   0.00000  Uiso   1.00
H12    H     0.82189   0.37873   0.25241   0.00000  Uiso   1.00
H13    H     0.82733   0.34831   0.17992   0.00000  Uiso   1.00
C14    C     0.10502   0.05779   0.91031   0.00000  Uiso   1.00
C15    C     0.13017   0.08358   0.87639   0.00000  Uiso   1.00
H16    H     0.11777   0.03613   0.94368   0.00000  Uiso   1.00
H17    H     0.16225   0.08194   0.88428   0.00000  Uiso   1.00
C18    C     0.18097   0.13179   0.78840   0.00000  Uiso   1.00
C19    C     0.20725   0.15943   0.76034   0.00000  Uiso   1.00
H20    H     0.19192   0.10205   0.79979   0.00000  Uiso   1.00
C21    C     0.56354   0.43950   0.40298   0.00000  Uiso   1.00
C22    C     0.61425   0.38753   0.33460   0.00000  Uiso   1.00
C23    C     0.64102   0.35848   0.30143   0.00000  Uiso   1.00
C24    C     0.69264   0.30193   0.24435   0.00000  Uiso   1.00
O25    O     0.71598   0.27182   0.21638   0.00000  Uiso   1.00
Si26   Si    0.46993   0.52849   0.45260   0.00000  Uiso   1.00
O27    O     0.49866   0.55051   0.49996   0.00000  Uiso   1.00
C28    C     0.63719   0.25222   0.23722   0.00000  Uiso   1.00
H29    H     0.65429   0.22896   0.26423   0.00000  Uiso   1.00
H30    H     0.64126   0.24744   0.18435   0.00000  Uiso   1.00
H31    H     0.60479   0.24955   0.24936   0.00000  Uiso   1.00
Ag32   Ag    0.77166   0.27166   0.25000   0.00000  Uiso   1.00
O33    O     0.50000   0.50000   0.41793   0.00000  Uiso   1.00
loop_
_geom_bond_atom_site_label_1
_geom_bond_atom_site_label_2
_geom_bond_distance
_geom_bond_site_symmetry_2
_ccdc_geom_bond_type
C1     C21     1.390   .     A
C1     C2      1.388   .     A
C1     H3      1.082   .     S
C2     C22     1.395   .     A
C2     H4      1.081   .     S
C5     C23     1.390   .     A
C5     C6      1.388   .     A
C5     H7      1.079   .     S
C6     C24     1.388   .     A
C6     C28     1.490   .     S
C8     N9      1.291   .     D
C8     H10     1.083   .     S
C8     C19     1.477   5_554 S
N9     Ag32    2.040   .     S
N9     C11     1.460   .     S
C11    H12     1.112   .     S
C11    H13     1.112   .     S
C11    C11     1.522   7_545 S
C14    C21     1.390   5_455 A
C14    C15     1.387   .     A
C14    H16     1.082   .     S
C15    C22     1.395   5_455 A
C15    H17     1.081   .     S
C18    C23     1.394   5_455 A
C18    C19     1.394   .     A
C18    H20     1.080   .     S
C19    C24     1.413   5_455 A
C19    C8      1.477   5_455 S
C21    C14     1.390   5_554 A
C21    Si26    1.849   2_665 S
C22    C15     1.395   5_554 A
C22    C23     1.481   .     S
C23    C18     1.394   5_554 A
C24    C19     1.413   5_554 A
C24    O25     1.392   .     S
O25    Ag32    1.977   .     S
Si26   O33     1.552   .     S
Si26   O27     1.550   4_656 S
Si26   C21     1.849   2_665 S
O27    Si26    1.550   3_566 S
C28    H29     1.110   .     S
C28    H30     1.109   .     S
C28    H31     1.110   .     S
Ag32   N9      2.040   7_545 S
Ag32   O25     1.977   7_545 S
O33    Si26    1.552   2_665 S
