data_dAg13
_audit_creation_date              2025-09-02
_audit_creation_method            'Materials Studio'
_symmetry_space_group_name_H-M    'P-4N2'
_symmetry_Int_Tables_number       118
_symmetry_cell_setting            tetragonal
loop_
_symmetry_equiv_pos_as_xyz
  x,y,z
  -x,-y,z
  y,-x,-z
  -y,x,-z
  x+1/2,-y+1/2,z+1/2
  -x+1/2,y+1/2,z+1/2
  y+1/2,x+1/2,-z+1/2
  -y+1/2,-x+1/2,-z+1/2
_cell_length_a                    22.5708
_cell_length_b                    22.5708
_cell_length_c                    23.3761
_cell_angle_alpha                 90.0000
_cell_angle_beta                  90.0000
_cell_angle_gamma                 90.0000
loop_
_atom_site_label
_atom_site_type_symbol
_atom_site_fract_x
_atom_site_fract_y
_atom_site_fract_z
_atom_site_U_iso_or_equiv
_atom_site_adp_type
_atom_site_occupancy
C1     C     0.45697   0.44991   0.54433   0.00000  Uiso   1.00
C2     C     0.42799   0.41617   0.57288   0.00000  Uiso   1.00
C3     C     0.60687   0.62437   0.60622   0.00000  Uiso   1.00
C4     C     0.58922   0.68269   0.61190   0.00000  Uiso   1.00
C5     C     0.65896   0.60545   0.63174   0.00000  Uiso   1.00
C6     C     0.62362   0.72179   0.64316   0.00000  Uiso   1.00
H7     H     0.54881   0.69788   0.59178   0.00000  Uiso   1.00
C8     C     0.69437   0.64402   0.66350   0.00000  Uiso   1.00
H9     H     0.67244   0.55977   0.62638   0.00000  Uiso   1.00
C10    C     0.67583   0.70363   0.66942   0.00000  Uiso   1.00
C11    C     0.74927   0.61703   0.68615   0.00000  Uiso   1.00
O12    O     0.70646   0.74754   0.69921   0.00000  Uiso   1.00
N13    N     0.78644   0.64381   0.71935   0.00000  Uiso   1.00
H14    H     0.75752   0.57145   0.67463   0.00000  Uiso   1.00
C15    C     0.83771   0.61516   0.74550   0.00000  Uiso   1.00
H16    H     0.82407   0.59752   0.78785   0.00000  Uiso   1.00
H17    H     0.39035   0.23259   0.64734   0.00000  Uiso   1.00
C18    C     0.41566   0.96228   0.24269   0.00000  Uiso   1.00
C19    C     0.36377   0.93518   0.21002   0.00000  Uiso   1.00
H20    H     0.39908   0.98267   0.28285   0.00000  Uiso   1.00
H21    H     0.43630  -0.00253   0.21617   0.00000  Uiso   1.00
H22    H     0.37907   0.91817   0.16796   0.00000  Uiso   1.00
H23    H     0.33019   0.97032   0.20323   0.00000  Uiso   1.00
Si185  Si    0.50000   0.50000   0.50000   0.00000  Uiso   1.00
Zn187  Ag    0.22639   0.27361   0.75000   0.00000  Uiso   1.00
loop_
_geom_bond_atom_site_label_1
_geom_bond_atom_site_label_2
_geom_bond_distance
_geom_bond_site_symmetry_2
_ccdc_geom_bond_type
C1     Si185   1.815   .     S
C1     C2      1.206   .     T
C2     C3      1.437   2_665 S
C3     C4      1.382   .     S
C3     C5      1.386   .     D
C3     C2      1.437   2_665 S
C4     C6      1.384   .     D
C4     H7      1.082   .     S
C5     C8      1.396   .     S
C5     H9      1.082   .     S
C6     C10     1.391   .     S
C6     H17     1.081   2_665 S
C8     C10     1.416   .     D
C8     C11     1.479   .     S
C10    O12     1.395   .     S
C11    N13     1.293   .     D
C11    H14     1.080   .     S
O12    Zn187   1.984   2_665 S
N13    C15     1.460   .     S
N13    Zn187   2.018   2_665 S
C15    H16     1.111   .     S
C15    C15     1.519   8_666 S
C15    C19     1.525   5_565 S
H17    C6      1.081   2_665 S
C18    C19     1.526   .     S
C18    C18     1.527   7_455 S
C18    H20     1.110   .     S
C18    H21     1.110   1_565 S
C19    C15     1.525   5_464 S
C19    H22     1.110   .     S
C19    H23     1.109   .     S
H21    C18     1.110   1_545 S
Si185  C1      1.815   2_665 S
Si185  C1      1.815   3_566 S
Si185  C1      1.815   4_656 S
Zn187  O12     1.984   2_665 S
Zn187  O12     1.984   7_446 S
Zn187  N13     2.018   2_665 S
Zn187  N13     2.018   7_446 S
