data_dAg13-nh2
_audit_creation_date              2025-09-02
_audit_creation_method            'Materials Studio'
_symmetry_space_group_name_H-M    'P-4N2'
_symmetry_Int_Tables_number       118
_symmetry_cell_setting            tetragonal
loop_
_symmetry_equiv_pos_as_xyz
  x,y,z
  -x,-y,z
  y,-x,-z
  -y,x,-z
  x+1/2,-y+1/2,z+1/2
  -x+1/2,y+1/2,z+1/2
  y+1/2,x+1/2,-z+1/2
  -y+1/2,-x+1/2,-z+1/2
_cell_length_a                    22.5280
_cell_length_b                    22.5280
_cell_length_c                    23.4240
_cell_angle_alpha                 90.0000
_cell_angle_beta                  90.0000
_cell_angle_gamma                 90.0000
loop_
_atom_site_label
_atom_site_type_symbol
_atom_site_fract_x
_atom_site_fract_y
_atom_site_fract_z
_atom_site_U_iso_or_equiv
_atom_site_adp_type
_atom_site_occupancy
C1     C     0.45687   0.44984   0.54429   0.00000  Uiso   1.00
C2     C     0.42777   0.41610   0.57281   0.00000  Uiso   1.00
C3     C     0.60733   0.62442   0.60608   0.00000  Uiso   1.00
C4     C     0.58991   0.68293   0.61171   0.00000  Uiso   1.00
C5     C     0.65950   0.60528   0.63142   0.00000  Uiso   1.00
C6     C     0.62462   0.72216   0.64272   0.00000  Uiso   1.00
H7     H     0.54938   0.69811   0.59169   0.00000  Uiso   1.00
C8     C     0.69521   0.64384   0.66292   0.00000  Uiso   1.00
H9     H     0.67283   0.55948   0.62606   0.00000  Uiso   1.00
C10    C     0.67693   0.70363   0.66877   0.00000  Uiso   1.00
C11    C     0.75027   0.61673   0.68527   0.00000  Uiso   1.00
O12    O     0.70800   0.74751   0.69829   0.00000  Uiso   1.00
N13    N     0.78760   0.64345   0.71839   0.00000  Uiso   1.00
H14    H     0.75847   0.57110   0.67363   0.00000  Uiso   1.00
C15    C     0.83862   0.61434   0.74468   0.00000  Uiso   1.00
H16    H     0.82431   0.59566   0.78634   0.00000  Uiso   1.00
N17    N     0.39341   0.21754   0.64820   0.00000  Uiso   1.00
C18    C     0.41677   0.96311   0.24164   0.00000  Uiso   1.00
C19    C     0.36550   0.93517   0.20863   0.00000  Uiso   1.00
H20    H     0.39928   0.98459   0.28085   0.00000  Uiso   1.00
H21    H     0.43808  -0.00235   0.21477   0.00000  Uiso   1.00
H22    H     0.38171   0.91706   0.16739   0.00000  Uiso   1.00
H23    H     0.33205   0.97022   0.20032   0.00000  Uiso   1.00
H24    H     0.43251   0.20283   0.62894   0.00000  Uiso   1.00
H25    H     0.36755   0.18773   0.67154   0.00000  Uiso   1.00
Si26   Si    0.50000   0.50000   0.50000   0.00000  Uiso   1.00
Ag27   Ag    0.22572   0.27428   0.75000   0.00000  Uiso   1.00
loop_
_geom_bond_atom_site_label_1
_geom_bond_atom_site_label_2
_geom_bond_distance
_geom_bond_site_symmetry_2
_ccdc_geom_bond_type
C1     Si26    1.816   .     S
C1     C2      1.206   .     T
C2     C3      1.437   2_665 S
C3     C4      1.382   .     S
C3     C5      1.385   .     D
C3     C2      1.437   2_665 S
C4     C6      1.386   .     D
C4     H7      1.082   .     S
C5     C8      1.395   .     S
C5     H9      1.082   .     S
C6     C10     1.391   .     S
C6     N17     1.424   2_665 S
C8     C10     1.415   .     D
C8     C11     1.478   .     S
C10    O12     1.395   .     S
C11    N13     1.293   .     D
C11    H14     1.079   .     S
O12    Ag27    1.985   2_665 S
N13    C15     1.459   .     S
N13    Ag27    2.018   2_665 S
C15    H16     1.111   .     S
C15    C15     1.519   8_666 S
C15    C19     1.525   5_565 S
N17    C6      1.424   2_665 S
N17    H24     1.044   .     S
N17    H25     1.044   .     S
C18    C19     1.526   .     S
C18    C18     1.527   7_455 S
C18    H20     1.110   .     S
C18    H21     1.110   1_565 S
C19    C15     1.525   5_464 S
C19    H22     1.110   .     S
C19    H23     1.109   .     S
H21    C18     1.110   1_545 S
Si26   C1      1.816   2_665 S
Si26   C1      1.816   3_566 S
Si26   C1      1.816   4_656 S
Ag27   O12     1.985   2_665 S
Ag27   O12     1.985   7_446 S
Ag27   N13     2.018   2_665 S
Ag27   N13     2.018   7_446 S
