data_dAg10-nh2
_audit_creation_date              2025-09-02
_audit_creation_method            'Materials Studio'
_symmetry_space_group_name_H-M    'P-4N2'
_symmetry_Int_Tables_number       118
_symmetry_cell_setting            tetragonal
loop_
_symmetry_equiv_pos_as_xyz
  x,y,z
  -x,-y,z
  y,-x,-z
  -y,x,-z
  x+1/2,-y+1/2,z+1/2
  -x+1/2,y+1/2,z+1/2
  y+1/2,x+1/2,-z+1/2
  -y+1/2,-x+1/2,-z+1/2
_cell_length_a                    33.1622
_cell_length_b                    33.1622
_cell_length_c                    20.8637
_cell_angle_alpha                 90.0000
_cell_angle_beta                  90.0000
_cell_angle_gamma                 90.0000
loop_
_atom_site_label
_atom_site_type_symbol
_atom_site_fract_x
_atom_site_fract_y
_atom_site_fract_z
_atom_site_U_iso_or_equiv
_atom_site_adp_type
_atom_site_occupancy
C1     C     0.54741   0.41137   0.36163   0.00000  Uiso   1.00
C2     C     0.57258   0.38567   0.32762   0.00000  Uiso   1.00
H3     H     0.51506   0.40912   0.35582   0.00000  Uiso   1.00
H4     H     0.55954   0.36401   0.29495   0.00000  Uiso   1.00
C5     C     0.62692   0.32085   0.28429   0.00000  Uiso   1.00
C6     C     0.65248   0.29319   0.25538   0.00000  Uiso   1.00
H7     H     0.59614   0.31226   0.29416   0.00000  Uiso   1.00
C8     C     0.74827   0.35641   0.24683   0.00000  Uiso   1.00
N9     N     0.77896   0.33281   0.24038   0.00000  Uiso   1.00
H10    H     0.75279   0.38876   0.24589   0.00000  Uiso   1.00
C11    C     0.81983   0.34843   0.23277   0.00000  Uiso   1.00
H12    H     0.82235   0.37936   0.25291   0.00000  Uiso   1.00
H13    H     0.82764   0.34915   0.18096   0.00000  Uiso   1.00
C14    C     0.10525   0.05787   0.91088   0.00000  Uiso   1.00
C15    C     0.13039   0.08359   0.87694   0.00000  Uiso   1.00
H16    H     0.11813   0.03625   0.94393   0.00000  Uiso   1.00
H17    H     0.16259   0.08195   0.88451   0.00000  Uiso   1.00
C18    C     0.18113   0.13148   0.78916   0.00000  Uiso   1.00
C19    C     0.20744   0.15903   0.76094   0.00000  Uiso   1.00
H20    H     0.19213   0.10172   0.80077   0.00000  Uiso   1.00
C21    C     0.56364   0.43942   0.40389   0.00000  Uiso   1.00
C22    C     0.61432   0.38760   0.33545   0.00000  Uiso   1.00
C23    C     0.64110   0.35867   0.30210   0.00000  Uiso   1.00
C24    C     0.69277   0.30232   0.24470   0.00000  Uiso   1.00
O25    O     0.71616   0.27224   0.21673   0.00000  Uiso   1.00
Si26   Si    0.46983   0.52856   0.45318   0.00000  Uiso   1.00
O27    O     0.49863   0.55066   0.49996   0.00000  Uiso   1.00
N28    N     0.63761   0.25444   0.23795   0.00000  Uiso   1.00
H29    H     0.65681   0.23332   0.21687   0.00000  Uiso   1.00
H30    H     0.60747   0.24695   0.24608   0.00000  Uiso   1.00
Ag31   Ag    0.77199   0.27199   0.25000   0.00000  Uiso   1.00
O32    O     0.50000   0.50000   0.41896   0.00000  Uiso   1.00
loop_
_geom_bond_atom_site_label_1
_geom_bond_atom_site_label_2
_geom_bond_distance
_geom_bond_site_symmetry_2
_ccdc_geom_bond_type
C1     C21     1.390   .     A
C1     C2      1.388   .     A
C1     H3      1.082   .     S
C2     C22     1.395   .     A
C2     H4      1.081   .     S
C5     C23     1.390   .     A
C5     C6      1.387   .     A
C5     H7      1.079   .     S
C6     C24     1.388   .     A
C6     N28     1.424   .     S
C8     N9      1.291   .     D
C8     H10     1.083   .     S
C8     C19     1.477   5_554 S
N9     Ag31    2.040   .     S
N9     C11     1.460   .     S
C11    H12     1.112   .     S
C11    H13     1.112   .     S
C11    C11     1.522   7_545 S
C14    C21     1.390   5_455 A
C14    C15     1.387   .     A
C14    H16     1.082   .     S
C15    C22     1.395   5_455 A
C15    H17     1.081   .     S
C18    C23     1.393   5_455 A
C18    C19     1.394   .     A
C18    H20     1.080   .     S
C19    C24     1.412   5_455 A
C19    C8      1.477   5_455 S
C21    C14     1.390   5_554 A
C21    Si26    1.848   2_665 S
C22    C15     1.395   5_554 A
C22    C23     1.481   .     S
C23    C18     1.393   5_554 A
C24    C19     1.412   5_554 A
C24    O25     1.392   .     S
O25    Ag31    1.977   .     S
Si26   O32     1.552   .     S
Si26   O27     1.550   4_656 S
Si26   C21     1.848   2_665 S
O27    Si26    1.550   3_566 S
N28    H29     1.044   .     S
N28    H30     1.044   .     S
Ag31   N9      2.040   7_545 S
Ag31   O25     1.977   7_545 S
O32    Si26    1.552   2_665 S
