data_dAg12
_audit_creation_date              2025-09-02
_audit_creation_method            'Materials Studio'
_symmetry_space_group_name_H-M    'P222'
_symmetry_Int_Tables_number       16
_symmetry_cell_setting            orthorhombic
loop_
_symmetry_equiv_pos_as_xyz
  x,y,z
  -x,-y,z
  -x,y,-z
  x,-y,-z
_cell_length_a                    27.5091
_cell_length_b                    34.2222
_cell_length_c                    32.4436
_cell_angle_alpha                 90.0000
_cell_angle_beta                  90.0000
_cell_angle_gamma                 90.0000
loop_
_atom_site_label
_atom_site_type_symbol
_atom_site_fract_x
_atom_site_fract_y
_atom_site_fract_z
_atom_site_U_iso_or_equiv
_atom_site_adp_type
_atom_site_occupancy
C1     C     0.53105   0.52514   0.52875   0.00000  Uiso   1.00
C2     C     0.51304   0.56042   0.54424   0.00000  Uiso   1.00
C3     C     0.57539   0.51135   0.54403   0.00000  Uiso   1.00
C4     C     0.54036   0.58274   0.57139   0.00000  Uiso   1.00
H5     H     0.47757   0.57079   0.53492   0.00000  Uiso   1.00
C6     C     0.60269   0.53373   0.57120   0.00000  Uiso   1.00
H7     H     0.58899   0.48309   0.53459   0.00000  Uiso   1.00
C8     C     0.58547   0.56966   0.58451   0.00000  Uiso   1.00
H9     H     0.52634   0.61039   0.58236   0.00000  Uiso   1.00
H10    H     0.63743   0.52304   0.58203   0.00000  Uiso   1.00
C11    C     0.61412   0.40673   0.38809   0.00000  Uiso   1.00
C12    C     0.63810   0.38658   0.36536   0.00000  Uiso   1.00
C13    C     0.33341   0.63775   0.33853   0.00000  Uiso   1.00
C14    C     0.34285   0.63845   0.29668   0.00000  Uiso   1.00
C15    C     0.29633   0.66058   0.35458   0.00000  Uiso   1.00
C16    C     0.31553   0.66226   0.27110   0.00000  Uiso   1.00
H17    H     0.37153   0.62052   0.28391   0.00000  Uiso   1.00
C18    C     0.26850   0.68491   0.32943   0.00000  Uiso   1.00
H19    H     0.28891   0.65930   0.38731   0.00000  Uiso   1.00
C20    C     0.27893   0.68601   0.28679   0.00000  Uiso   1.00
C21    C     0.22861   0.70576   0.35060   0.00000  Uiso   1.00
O22    O     0.25404   0.70889   0.25821   0.00000  Uiso   1.00
N23    N     0.20372   0.73372   0.33412   0.00000  Uiso   1.00
C24    C     0.17016   0.75798   0.35771   0.00000  Uiso   1.00
H25    H     0.19182   0.77953   0.37554   0.00000  Uiso   1.00
C26    C     0.03108   0.97492   0.02876   0.00000  Uiso   1.00
C27    C     0.01318   0.93962   0.04431   0.00000  Uiso   1.00
C28    C     0.07527   0.98891   0.04417   0.00000  Uiso   1.00
C29    C     0.04040   0.91756   0.07178   0.00000  Uiso   1.00
H30    H     0.97783   0.92909   0.03488   0.00000  Uiso   1.00
C31    C     0.10247   0.96679   0.07164   0.00000  Uiso   1.00
H32    H     0.08877   0.01719   0.03466   0.00000  Uiso   1.00
C33    C     0.08530   0.93090   0.08514   0.00000  Uiso   1.00
H34    H     0.02644   0.88994   0.08286   0.00000  Uiso   1.00
H35    H     0.13705   0.97768   0.08261   0.00000  Uiso   1.00
C36    C     0.11380   0.09236   0.88702   0.00000  Uiso   1.00
C37    C     0.13775   0.11217   0.86393   0.00000  Uiso   1.00
C38    C     0.83366   0.86392   0.83677   0.00000  Uiso   1.00
C39    C     0.85275   0.85149   0.79944   0.00000  Uiso   1.00
C40    C     0.78698   0.85321   0.84784   0.00000  Uiso   1.00
C41    C     0.82604   0.82774   0.77283   0.00000  Uiso   1.00
H42    H     0.88906   0.86057   0.79090   0.00000  Uiso   1.00
C43    C     0.75975   0.82981   0.82180   0.00000  Uiso   1.00
H44    H     0.77177   0.86301   0.87680   0.00000  Uiso   1.00
C45    C     0.77870   0.81632   0.78471   0.00000  Uiso   1.00
O46    O     0.74813   0.79277   0.76114   0.00000  Uiso   1.00
H47    H     0.77855   0.69797   0.61767   0.00000  Uiso   1.00
C48    C     0.85004   0.81872   0.73319   0.00000  Uiso   1.00
H49    H     0.88358   0.83389   0.72636   0.00000  Uiso   1.00
N50    N     0.83454   0.20730   0.29252   0.00000  Uiso   1.00
C51    C     0.86287   0.22002   0.32808   0.00000  Uiso   1.00
H52    H     0.89167   0.24022   0.31706   0.00000  Uiso   1.00
Zn53   Ag    0.22094   0.24341   0.72113   0.00000  Uiso   1.00
H54    H     0.27671   0.17853   0.83063   0.00000  Uiso   1.00
H55    H     0.32308   0.33725   0.76160   0.00000  Uiso   1.00
C56    C     0.86140   0.73441   0.61269   0.00000  Uiso   1.00
C57    C     0.90722   0.75758   0.60185   0.00000  Uiso   1.00
C58    C     0.89805   0.80155   0.60459   0.00000  Uiso   1.00
C59    C     0.88642   0.81388   0.64883   0.00000  Uiso   1.00
H60    H     0.87208   0.70628   0.62714   0.00000  Uiso   1.00
H61    H     0.84049   0.72836   0.58414   0.00000  Uiso   1.00
H62    H     0.91886   0.74993   0.57009   0.00000  Uiso   1.00
H63    H     0.93699   0.74962   0.62338   0.00000  Uiso   1.00
H64    H     0.86719   0.80931   0.58410   0.00000  Uiso   1.00
H65    H     0.93076   0.81756   0.59381   0.00000  Uiso   1.00
H66    H     0.86142   0.83935   0.64818   0.00000  Uiso   1.00
H67    H     0.92054   0.82236   0.66476   0.00000  Uiso   1.00
C269   C     0.50000   0.50000   0.50000   0.00000  Uiso   1.00
C270   C     0.00000   0.00000   0.00000   0.00000  Uiso   1.00
loop_
_geom_bond_atom_site_label_1
_geom_bond_atom_site_label_2
_geom_bond_distance
_geom_bond_site_symmetry_2
_ccdc_geom_bond_type
C1     C269    1.529   .     S
C1     C2      1.399   .     A
C1     C3      1.399   .     A
C2     C4      1.387   .     A
C2     H5      1.081   .     S
C3     C6      1.388   .     A
C3     H7      1.081   .     S
C4     C8      1.386   .     A
C4     H9      1.082   .     S
C6     C8      1.387   .     A
C6     H10     1.082   .     S
C8     C11     1.437   4_566 S
C11    C12     1.206   .     T
C11    C8      1.437   4_566 S
C12    C13     1.437   2_665 S
C13    C14     1.383   .     S
C13    C15     1.387   .     D
C13    C12     1.437   2_665 S
C14    C16     1.385   .     D
C14    H17     1.082   .     S
C15    C18     1.395   .     S
C15    H19     1.082   .     S
C16    C20     1.390   .     S
C16    H55     1.081   4_566 S
C18    C20     1.413   .     D
C18    C21     1.478   .     S
C20    O22     1.393   .     S
C21    N23     1.292   .     D
C21    H47     1.081   3_656 S
O22    Zn53    1.986   4_566 S
N23    C24     1.459   .     S
N23    Zn53    2.012   4_566 S
C24    H25     1.111   .     S
C24    C51     1.522   2_665 S
C24    C56     1.525   3_656 S
C26    C27     1.399   .     A
C26    C28     1.399   .     A
C26    C270    1.529   1_565 S
C27    C29     1.387   .     A
C27    H30     1.081   1_455 S
C28    C31     1.388   .     A
C28    H32     1.081   1_565 S
C29    C33     1.386   .     A
C29    H34     1.082   .     S
H30    C27     1.081   1_655 S
C31    C33     1.387   .     A
C31    H35     1.082   .     S
H32    C28     1.081   1_545 S
C33    C36     1.437   4_566 S
C36    C37     1.206   .     T
C36    C33     1.437   4_566 S
C37    C38     1.437   2_665 S
C38    C39     1.387   .     S
C38    C40     1.383   .     D
C38    C37     1.437   2_665 S
C39    C41     1.395   .     D
C39    H42     1.082   .     S
C40    C43     1.384   .     S
C40    H44     1.082   .     S
C41    C45     1.413   .     S
C41    C48     1.478   .     S
C43    C45     1.390   .     D
C43    H54     1.081   2_665 S
C45    O46     1.393   .     S
O46    Zn53    1.985   2_665 S
H47    C21     1.081   3_656 S
C48    H49     1.082   .     S
C48    N50     1.293   4_566 D
N50    C51     1.459   .     S
N50    C48     1.293   4_566 D
N50    Zn53    2.013   3_656 S
C51    H52     1.111   .     S
C51    C24     1.522   2_665 S
C51    C59     1.525   4_566 S
Zn53   N23     2.012   4_566 S
Zn53   O22     1.986   4_566 S
Zn53   O46     1.985   2_665 S
Zn53   N50     2.013   3_656 S
H54    C43     1.081   2_665 S
H55    C16     1.081   4_566 S
C56    C57     1.530   .     S
C56    C24     1.525   3_656 S
C56    H60     1.110   .     S
C56    H61     1.110   .     S
C57    C58     1.528   .     S
C57    H62     1.110   .     S
C57    H63     1.110   .     S
C58    C59     1.530   .     S
C58    H64     1.110   .     S
C58    H65     1.110   .     S
C59    C51     1.525   4_566 S
C59    H66     1.110   .     S
C59    H67     1.110   .     S
C269   C1      1.529   2_665 S
C269   C1      1.529   3_656 S
C269   C1      1.529   4_566 S
C270   C26     1.529   1_545 S
C270   C26     1.529   2_565 S
C270   C26     1.529   3_545 S
C270   C26     1.529   4_565 S
