data_dAgAg10-f
_audit_creation_date              2025-09-02
_audit_creation_method            'Materials Studio'
_symmetry_space_group_name_H-M    'P-4N2'
_symmetry_Int_Tables_number       118
_symmetry_cell_setting            tetragonal
loop_
_symmetry_equiv_pos_as_xyz
  x,y,z
  -x,-y,z
  y,-x,-z
  -y,x,-z
  x+1/2,-y+1/2,z+1/2
  -x+1/2,y+1/2,z+1/2
  y+1/2,x+1/2,-z+1/2
  -y+1/2,-x+1/2,-z+1/2
_cell_length_a                    32.9656
_cell_length_b                    32.9656
_cell_length_c                    40.7248
_cell_angle_alpha                 90.0000
_cell_angle_beta                  90.0000
_cell_angle_gamma                 90.0000
loop_
_atom_site_label
_atom_site_type_symbol
_atom_site_fract_x
_atom_site_fract_y
_atom_site_fract_z
_atom_site_U_iso_or_equiv
_atom_site_adp_type
_atom_site_occupancy
C1     C     0.55701   0.44200   0.55446   0.00000  Uiso   1.00
C2     C     0.58345   0.46086   0.57616   0.00000  Uiso   1.00
C3     C     0.55380   0.40001   0.55414   0.00000  Uiso   1.00
C4     C     0.60682   0.43771   0.59747   0.00000  Uiso   1.00
H5     H     0.58599   0.49357   0.57635   0.00000  Uiso   1.00
C6     C     0.57715   0.37685   0.57543   0.00000  Uiso   1.00
H7     H     0.53326   0.38532   0.53719   0.00000  Uiso   1.00
C8     C     0.60375   0.39567   0.59708   0.00000  Uiso   1.00
H9     H     0.62753   0.45245   0.61427   0.00000  Uiso   1.00
H10    H     0.57471   0.34413   0.57505   0.00000  Uiso   1.00
C11    C     0.37163   0.37170   0.38120   0.00000  Uiso   1.00
C12    C     0.35137   0.35102   0.36309   0.00000  Uiso   1.00
C13    C     0.67367   0.32708   0.65837   0.00000  Uiso   1.00
C14    C     0.71118   0.34115   0.66846   0.00000  Uiso   1.00
C15    C     0.65992   0.28953   0.66854   0.00000  Uiso   1.00
C16    C     0.73580   0.31809   0.68909   0.00000  Uiso   1.00
H17    F     0.72399   0.37803   0.65791   0.00000  Uiso   1.00
C18    C     0.68299   0.26512   0.68916   0.00000  Uiso   1.00
H19    H     0.63059   0.27904   0.66016   0.00000  Uiso   1.00
C20    C     0.72165   0.27938   0.69976   0.00000  Uiso   1.00
C21    C     0.66411   0.22500   0.69715   0.00000  Uiso   1.00
O22    O     0.74704   0.25403   0.71780   0.00000  Uiso   1.00
N23    N     0.67413   0.20344   0.72245   0.00000  Uiso   1.00
H24    H     0.63867   0.21512   0.68237   0.00000  Uiso   1.00
C25    C     0.65502   0.16524   0.73191   0.00000  Uiso   1.00
H26    H     0.66673   0.14071   0.71583   0.00000  Uiso   1.00
H27    H     0.62163   0.16743   0.72886   0.00000  Uiso   1.00
C28    C     0.16309   0.72401   0.80288   0.00000  Uiso   1.00
Si29   Si    0.47317   0.52746   0.52568   0.00000  Uiso   1.00
O30    O     0.44901   0.50060   0.50000   0.00000  Uiso   1.00
N31    N     0.17309   0.70249   0.77754   0.00000  Uiso   1.00
C32    C     0.15399   0.66430   0.76807   0.00000  Uiso   1.00
H33    H     0.13774   0.71398   0.81766   0.00000  Uiso   1.00
H34    H     0.12059   0.66652   0.77105   0.00000  Uiso   1.00
H35    H     0.16562   0.63979   0.78421   0.00000  Uiso   1.00
Li36   Ag    0.71981   0.21981   0.75000   0.00000  Uiso   1.00
O37    O     0.50000   0.50000   0.54618   0.00000  Uiso   1.00
Li38   Ag    0.21878   0.71878   0.75000   0.00000  Uiso   1.00
loop_
_geom_bond_atom_site_label_1
_geom_bond_atom_site_label_2
_geom_bond_distance
_geom_bond_site_symmetry_2
_ccdc_geom_bond_type
C1     C2      1.388   .     D
C1     C3      1.388   .     S
C1     Si29    1.838   2_665 S
C2     C4      1.389   .     S
C2     H5      1.082   .     S
C3     C6      1.388   .     D
C3     H7      1.081   .     S
C4     C8      1.390   .     D
C4     H9      1.082   .     S
C6     C8      1.390   .     S
C6     H10     1.082   .     S
C8     C11     1.437   4_656 S
C11    C12     1.206   .     T
C11    C8      1.437   3_566 S
C12    C13     1.438   3_566 S
C13    C14     1.383   .     D
C13    C15     1.382   .     S
C13    C12     1.438   4_656 S
C14    C16     1.393   .     S
C14    H17     1.357   .     S
C15    C18     1.389   .     D
C15    H19     1.082   .     S
C16    C20     1.427   .     D
C16    C28     1.499   8_656 S
C18    C20     1.425   .     S
C18    C21     1.498   .     S
C20    O22     1.392   .     S
C21    N23     1.295   .     D
C21    H24     1.082   .     S
O22    Li36    1.949   .     S
O22    Li38    1.948   2_665 S
N23    Li36    1.954   .     S
N23    C25     1.460   .     S
C25    H26     1.110   .     S
C25    H27     1.110   .     S
C25    C25     1.548   7_546 S
C28    N31     1.295   .     D
C28    H33     1.082   .     S
C28    C16     1.499   8_566 S
Si29   O30     1.585   .     S
Si29   O37     1.516   .     S
Si29   C1      1.838   2_665 S
Si29   O30     1.585   3_566 S
Si29   Si29    2.531   2_665 S
O30    Si29    1.585   4_656 S
N31    C32     1.460   .     S
N31    Li38    1.953   .     S
C32    H34     1.110   .     S
C32    H35     1.110   .     S
C32    C32     1.548   7_456 S
Li36   O22     1.949   7_546 S
Li36   N23     1.954   7_546 S
O37    Si29    1.516   2_665 S
Li38   N31     1.953   7_456 S
Li38   O22     1.948   2_665 S
Li38   O22     1.948   8_566 S
