data_dAgAg03
_audit_creation_date              2025-09-02
_audit_creation_method            'Materials Studio'
_symmetry_space_group_name_H-M    'P-4N2'
_symmetry_Int_Tables_number       118
_symmetry_cell_setting            tetragonal
loop_
_symmetry_equiv_pos_as_xyz
  x,y,z
  -x,-y,z
  y,-x,-z
  -y,x,-z
  x+1/2,-y+1/2,z+1/2
  -x+1/2,y+1/2,z+1/2
  y+1/2,x+1/2,-z+1/2
  -y+1/2,-x+1/2,-z+1/2
_cell_length_a                    24.0808
_cell_length_b                    24.0808
_cell_length_c                    28.1807
_cell_angle_alpha                 90.0000
_cell_angle_beta                  90.0000
_cell_angle_gamma                 90.0000
loop_
_atom_site_label
_atom_site_type_symbol
_atom_site_fract_x
_atom_site_fract_y
_atom_site_fract_z
_atom_site_U_iso_or_equiv
_atom_site_adp_type
_atom_site_occupancy
C1     C     0.52733   0.59504   0.53383   0.00000  Uiso   1.00
C2     C     0.55871   0.62776   0.56421   0.00000  Uiso   1.00
H3     H     0.49737   0.61509   0.51106   0.00000  Uiso   1.00
H4     H     0.55341   0.67231   0.56326   0.00000  Uiso   1.00
C5     C     0.37867   0.68329   0.35844   0.00000  Uiso   1.00
C6     C     0.34547   0.71727   0.33026   0.00000  Uiso   1.00
H7     H     0.41908   0.69817   0.36931   0.00000  Uiso   1.00
C8     C     0.22110   0.61932   0.31787   0.00000  Uiso   1.00
N9     N     0.18696   0.63813   0.28603   0.00000  Uiso   1.00
H10    H     0.21192   0.57926   0.33344   0.00000  Uiso   1.00
C11    C     0.14021   0.60595   0.26794   0.00000  Uiso   1.00
H12    H     0.11322   0.59276   0.29782   0.00000  Uiso   1.00
H13    H     0.15645   0.56838   0.24981   0.00000  Uiso   1.00
C14    C     0.92881   0.01351   0.06506   0.00000  Uiso   1.00
C15    C     0.89726   0.04624   0.09529   0.00000  Uiso   1.00
H16    H     0.92411   0.96884   0.06624   0.00000  Uiso   1.00
H17    H     0.86880   0.02635   0.11960   0.00000  Uiso   1.00
C18    C     0.80638   0.88799   0.85868   0.00000  Uiso   1.00
C19    C     0.77223   0.85530   0.83052   0.00000  Uiso   1.00
H20    H     0.79295   0.92921   0.86868   0.00000  Uiso   1.00
C21    C     0.87080   0.73156   0.81757   0.00000  Uiso   1.00
N22    N     0.85184   0.69730   0.78590   0.00000  Uiso   1.00
H23    H     0.91096   0.72245   0.83296   0.00000  Uiso   1.00
C24    C     0.88397   0.65052   0.76777   0.00000  Uiso   1.00
H25    H     0.89747   0.62370   0.79766   0.00000  Uiso   1.00
H26    H     0.92135   0.66676   0.74935   0.00000  Uiso   1.00
C27    C     0.53423   0.53744   0.53277   0.00000  Uiso   1.00
C28    C     0.59723   0.60380   0.59483   0.00000  Uiso   1.00
C29    C     0.36096   0.63163   0.37385   0.00000  Uiso   1.00
C30    C     0.29104   0.69881   0.31746   0.00000  Uiso   1.00
O31    O     0.25353   0.73640   0.29853   0.00000  Uiso   1.00
C32    C     0.50000   0.50000   0.50000   0.00000  Uiso   1.00
Zn33   Ag    0.20533   0.70533   0.25000   0.00000  Uiso   1.00
Zn34   Ag    0.78455   0.71545   0.75000   0.00000  Uiso   1.00
loop_
_geom_bond_atom_site_label_1
_geom_bond_atom_site_label_2
_geom_bond_distance
_geom_bond_site_symmetry_2
_ccdc_geom_bond_type
C1     C27     1.397   .     A
C1     C2      1.387   .     A
C1     H3      1.080   .     S
C2     C28     1.392   .     A
C2     H4      1.081   .     S
C5     C29     1.385   .     A
C5     C6      1.393   .     A
C5     H7      1.081   .     S
C6     C30     1.430   .     A
C6     C21     1.421   5_464 A
C8     N9      1.298   .     D
C8     H10     1.083   .     S
C8     C19     1.420   5_464 A
N9     Zn33    1.961   .     S
N9     C11     1.459   .     S
C11    H12     1.110   .     S
C11    H13     1.110   .     S
C11    C11     1.544   7_455 S
C14    C15     1.387   .     A
C14    C27     1.397   6_644 A
C14    H16     1.082   1_545 S
C15    H17     1.081   .     S
C15    C28     1.392   6_644 A
H16    C14     1.082   1_565 S
C18    C19     1.388   .     A
C18    H20     1.081   .     S
C18    C29     1.461   5_565 S
C19    C8      1.420   5_565 A
C19    C30     1.428   5_565 A
C21    N22     1.298   .     D
C21    H23     1.082   .     S
C21    C6      1.421   5_565 A
N22    Zn34    1.960   .     S
N22    C24     1.459   .     S
C24    H25     1.110   .     S
C24    H26     1.110   .     S
C24    C24     1.544   8_666 S
C27    C32     1.531   .     S
C27    C14     1.397   6_655 A
C28    C15     1.392   6_655 A
C28    C29     1.478   3_566 S
C29    C18     1.461   5_464 S
C29    C28     1.478   4_656 S
C30    O31     1.386   .     S
C30    C19     1.428   5_464 A
O31    Zn33    1.944   .     S
O31    Zn34    1.942   4_656 S
C32    C27     1.531   2_665 S
C32    C27     1.531   3_566 S
C32    C27     1.531   4_656 S
Zn33   N9      1.961   7_455 S
Zn33   O31     1.944   7_455 S
Zn33   Zn34    2.698   4_656 S
Zn34   N22     1.960   8_666 S
Zn34   O31     1.942   3_566 S
Zn34   O31     1.942   5_565 S
Zn34   Zn33    2.698   3_566 S
