data_dAgAg01-nh2
_audit_creation_date              2025-09-02
_audit_creation_method            'Materials Studio'
_symmetry_space_group_name_H-M    'P-4N2'
_symmetry_Int_Tables_number       118
_symmetry_cell_setting            tetragonal
loop_
_symmetry_equiv_pos_as_xyz
  x,y,z
  -x,-y,z
  y,-x,-z
  -y,x,-z
  x+1/2,-y+1/2,z+1/2
  -x+1/2,y+1/2,z+1/2
  y+1/2,x+1/2,-z+1/2
  -y+1/2,-x+1/2,-z+1/2
_cell_length_a                    30.3145
_cell_length_b                    30.3145
_cell_length_c                    33.0667
_cell_angle_alpha                 90.0000
_cell_angle_beta                  90.0000
_cell_angle_gamma                 90.0000
loop_
_atom_site_label
_atom_site_type_symbol
_atom_site_fract_x
_atom_site_fract_y
_atom_site_fract_z
_atom_site_U_iso_or_equiv
_atom_site_adp_type
_atom_site_occupancy
C1     C     0.50755   0.55629   0.55605   0.00000  Uiso   1.00
C2     C     0.53206   0.58089   0.58338   0.00000  Uiso   1.00
H3     H     0.47193   0.55849   0.55668   0.00000  Uiso   1.00
H4     H     0.51548   0.60215   0.60481   0.00000  Uiso   1.00
C5     C     0.36971   0.69035   0.32066   0.00000  Uiso   1.00
C6     C     0.34692   0.71516   0.29154   0.00000  Uiso   1.00
N7     N     0.40978   0.70635   0.33819   0.00000  Uiso   1.00
C8     C     0.24759   0.63535   0.27786   0.00000  Uiso   1.00
N9     N     0.21423   0.65624   0.26269   0.00000  Uiso   1.00
H10    H     0.24387   0.60062   0.28464   0.00000  Uiso   1.00
C11    C     0.17207   0.63612   0.25206   0.00000  Uiso   1.00
H12    H     0.16221   0.61197   0.27563   0.00000  Uiso   1.00
H13    H     0.17568   0.61871   0.22272   0.00000  Uiso   1.00
C14    C     0.92573   0.02532   0.02907   0.00000  Uiso   1.00
C15    C     0.90128   0.04997   0.05646   0.00000  Uiso   1.00
H16    H     0.90852   1.00298   0.00913   0.00000  Uiso   1.00
H17    H     0.86572   0.04698   0.05696   0.00000  Uiso   1.00
C18    C     0.81405   0.86609   0.81865   0.00000  Uiso   1.00
C19    C     0.78931   0.84239   0.79087   0.00000  Uiso   1.00
H20    H     0.80217   0.89769   0.82929   0.00000  Uiso   1.00
C21    C     0.86928   0.74349   0.77716   0.00000  Uiso   1.00
N22    N     0.84817   0.70993   0.76265   0.00000  Uiso   1.00
H23    H     0.90442   0.74017   0.78156   0.00000  Uiso   1.00
C24    C     0.86816   0.66787   0.75147   0.00000  Uiso   1.00
H25    H     0.89317   0.65816   0.77432   0.00000  Uiso   1.00
H26    H     0.88445   0.67150   0.72160   0.00000  Uiso   1.00
C27    C     0.52825   0.52862   0.52800   0.00000  Uiso   1.00
C28    C     0.57768   0.57780   0.58359   0.00000  Uiso   1.00
C29    C     0.60239   0.39698   0.38745   0.00000  Uiso   1.00
C30    C     0.62270   0.37560   0.36295   0.00000  Uiso   1.00
C31    C     0.35339   0.64998   0.33359   0.00000  Uiso   1.00
C32    C     0.30567   0.69892   0.27688   0.00000  Uiso   1.00
O33    O     0.28329   0.72139   0.24639   0.00000  Uiso   1.00
H34    H     0.42775   0.68649   0.35800   0.00000  Uiso   1.00
H35    H     0.42026   0.73879   0.33418   0.00000  Uiso   1.00
C36    C     0.50000   0.50000   0.50000   0.00000  Uiso   1.00
Ag37   Ag    0.21905   0.71905   0.25000   0.00000  Uiso   1.00
Ag38   Ag    0.78547   0.71453   0.75000   0.00000  Uiso   1.00
loop_
_geom_bond_atom_site_label_1
_geom_bond_atom_site_label_2
_geom_bond_distance
_geom_bond_site_symmetry_2
_ccdc_geom_bond_type
C1     C27     1.399   .     A
C1     C2      1.387   .     A
C1     H3      1.082   .     S
C2     C28     1.386   .     A
C2     H4      1.082   .     S
C5     C31     1.388   .     A
C5     C6      1.404   .     A
C5     N7      1.431   .     S
C6     C32     1.429   .     A
C6     C21     1.502   5_464 S
N7     H34     1.043   .     S
N7     H35     1.042   .     S
C8     N9      1.294   .     D
C8     H10     1.082   .     S
C8     C19     1.497   5_464 S
N9     Ag37    1.955   .     S
N9     C11     1.459   .     S
C11    H12     1.110   .     S
C11    H13     1.110   .     S
C11    C11     1.547   7_455 S
C14    C15     1.388   .     A
C14    C27     1.399   6_644 A
C14    H16     1.080   1_545 S
C15    H17     1.082   .     S
C15    C28     1.387   6_644 A
H16    C14     1.080   1_565 S
C18    C19     1.387   .     A
C18    H20     1.082   .     S
C18    C31     1.380   5_565 A
C19    C8      1.497   5_565 S
C19    C32     1.424   5_565 A
C21    N22     1.294   .     D
C21    H23     1.080   .     S
C21    C6      1.502   5_565 S
N22    Ag38    1.951   .     S
N22    C24     1.459   .     S
C24    H25     1.110   .     S
C24    H26     1.110   .     S
C24    C24     1.548   8_666 S
C27    C36     1.531   .     S
C27    C14     1.399   6_655 A
C28    C15     1.387   6_655 A
C28    C29     1.437   4_656 S
C29    C30     1.206   .     T
C29    C28     1.437   3_566 S
C30    C31     1.438   2_665 S
C31    C18     1.380   5_464 A
C31    C30     1.438   2_665 S
C32    O33     1.393   .     S
C32    C19     1.424   5_464 A
O33    Ag37    1.952   .     S
O33    Ag38    1.947   4_656 S
C36    C27     1.531   2_665 S
C36    C27     1.531   3_566 S
C36    C27     1.531   4_656 S
Ag37   N9      1.955   7_455 S
Ag37   O33     1.952   7_455 S
Ag38   N22     1.951   8_666 S
Ag38   O33     1.947   3_566 S
Ag38   O33     1.947   5_565 S
