data_dAgAg09
_audit_creation_date              2025-09-02
_audit_creation_method            'Materials Studio'
_symmetry_space_group_name_H-M    'P-4N2'
_symmetry_Int_Tables_number       118
_symmetry_cell_setting            tetragonal
loop_
_symmetry_equiv_pos_as_xyz
  x,y,z
  -x,-y,z
  y,-x,-z
  -y,x,-z
  x+1/2,-y+1/2,z+1/2
  -x+1/2,y+1/2,z+1/2
  y+1/2,x+1/2,-z+1/2
  -y+1/2,-x+1/2,-z+1/2
_cell_length_a                    29.0492
_cell_length_b                    29.0492
_cell_length_c                    27.0353
_cell_angle_alpha                 90.0000
_cell_angle_beta                  90.0000
_cell_angle_gamma                 90.0000
loop_
_atom_site_label
_atom_site_type_symbol
_atom_site_fract_x
_atom_site_fract_y
_atom_site_fract_z
_atom_site_U_iso_or_equiv
_atom_site_adp_type
_atom_site_occupancy
C1     C     0.55433   0.39652   0.44040   0.00000  Uiso   1.00
C2     C     0.58166   0.36956   0.40978   0.00000  Uiso   1.00
H3     H     0.53023   0.38033   0.46547   0.00000  Uiso   1.00
H4     H     0.57878   0.33251   0.41187   0.00000  Uiso   1.00
C5     C     0.62585   0.31880   0.32795   0.00000  Uiso   1.00
C6     C     0.65162   0.29146   0.29613   0.00000  Uiso   1.00
H7     H     0.59235   0.30681   0.33967   0.00000  Uiso   1.00
C8     C     0.75574   0.37419   0.28169   0.00000  Uiso   1.00
N9     N     0.79106   0.35207   0.26470   0.00000  Uiso   1.00
H10    H     0.75941   0.41058   0.28935   0.00000  Uiso   1.00
C11    C     0.83533   0.37290   0.25239   0.00000  Uiso   1.00
H12    H     0.84536   0.39793   0.28149   0.00000  Uiso   1.00
H13    H     0.83204   0.39131   0.21659   0.00000  Uiso   1.00
C14    C     0.08875   0.03523   0.90664   0.00000  Uiso   1.00
C15    C     0.11625   0.06208   0.87612   0.00000  Uiso   1.00
H16    H     0.09136  -0.00189   0.90515   0.00000  Uiso   1.00
H17    H     0.13966   0.04531   0.85080   0.00000  Uiso   1.00
C18    C     0.18404   0.12283   0.82785   0.00000  Uiso   1.00
C19    C     0.21148   0.14861   0.79613   0.00000  Uiso   1.00
H20    H     0.19654   0.08986   0.84063   0.00000  Uiso   1.00
C21    C     0.12877   0.25269   0.78141   0.00000  Uiso   1.00
N22    N     0.15091   0.28798   0.76441   0.00000  Uiso   1.00
H23    H     0.09236   0.25633   0.78893   0.00000  Uiso   1.00
C24    C     0.13014   0.33225   0.75194   0.00000  Uiso   1.00
H25    H     0.10463   0.34210   0.78062   0.00000  Uiso   1.00
H26    H     0.11237   0.32908   0.71577   0.00000  Uiso   1.00
C27    C     0.55773   0.44411   0.43869   0.00000  Uiso   1.00
C28    C     0.61284   0.39000   0.37720   0.00000  Uiso   1.00
C29    C     0.64150   0.36142   0.34397   0.00000  Uiso   1.00
C30    C     0.69523   0.30777   0.27964   0.00000  Uiso   1.00
O31    O     0.71965   0.28337   0.24394   0.00000  Uiso   1.00
C32    C     0.47226   0.52689   0.47066   0.00000  Uiso   1.00
O33    O     0.49916   0.55582   0.49996   0.00000  Uiso   1.00
Zn34   Ag    0.78639   0.28639   0.25000   0.00000  Uiso   1.00
Zn35   Ag    0.21664   0.28336   0.75000   0.00000  Uiso   1.00
O36    O     0.50000   0.50000   0.44008   0.00000  Uiso   1.00
loop_
_geom_bond_atom_site_label_1
_geom_bond_atom_site_label_2
_geom_bond_distance
_geom_bond_site_symmetry_2
_ccdc_geom_bond_type
C1     C27     1.387   .     A
C1     C2      1.389   .     A
C1     H3      1.082   .     S
C2     C28     1.396   .     A
C2     H4      1.081   .     S
C5     C29     1.388   .     A
C5     C6      1.390   .     A
C5     H7      1.081   .     S
C6     C30     1.424   .     A
C6     C21     1.498   5_554 S
C8     N9      1.295   .     D
C8     H10     1.082   .     S
C8     C19     1.498   5_554 S
N9     Zn34    1.954   .     S
N9     C11     1.460   .     S
C11    H12     1.110   .     S
C11    H13     1.110   .     S
C11    C11     1.549   7_545 S
C14    C15     1.388   .     A
C14    H16     1.082   .     S
C14    C27     1.387   5_455 A
C15    H17     1.081   .     S
C15    C28     1.396   5_455 A
C18    C19     1.390   .     A
C18    H20     1.081   .     S
C18    C29     1.388   5_455 A
C19    C8      1.498   5_455 S
C19    C30     1.424   5_455 A
C21    N22     1.295   .     D
C21    H23     1.082   .     S
C21    C6      1.498   5_455 S
N22    Zn35    1.953   .     S
N22    C24     1.460   .     S
C24    H25     1.110   .     S
C24    H26     1.110   .     S
C24    C24     1.549   8_556 S
C27    C14     1.387   5_554 A
C27    C32     1.489   2_665 S
C28    C29     1.480   .     S
C28    C15     1.396   5_554 A
C29    C18     1.388   5_554 A
C30    O31     1.392   .     S
C30    C19     1.424   5_554 A
O31    Zn34    1.948   .     S
O31    Zn35    1.947   4_656 S
C32    O36     1.394   .     S
C32    C27     1.489   2_665 S
C32    O33     1.395   4_656 S
O33    C32     1.395   3_566 S
Zn34   N9      1.954   7_545 S
Zn34   O31     1.948   7_545 S
Zn35   N22     1.953   8_556 S
Zn35   O31     1.947   3_566 S
Zn35   O31     1.947   5_455 S
O36    C32     1.394   2_665 S
