data_dAgAg06-oh
_audit_creation_date              2025-09-02
_audit_creation_method            'Materials Studio'
_symmetry_space_group_name_H-M    'P-4N2'
_symmetry_Int_Tables_number       118
_symmetry_cell_setting            tetragonal
loop_
_symmetry_equiv_pos_as_xyz
  x,y,z
  -x,-y,z
  y,-x,-z
  -y,x,-z
  x+1/2,-y+1/2,z+1/2
  -x+1/2,y+1/2,z+1/2
  y+1/2,x+1/2,-z+1/2
  -y+1/2,-x+1/2,-z+1/2
_cell_length_a                    16.4501
_cell_length_b                    16.4501
_cell_length_c                    14.1148
_cell_angle_alpha                 90.0000
_cell_angle_beta                  90.0000
_cell_angle_gamma                 90.0000
loop_
_atom_site_label
_atom_site_type_symbol
_atom_site_fract_x
_atom_site_fract_y
_atom_site_fract_z
_atom_site_U_iso_or_equiv
_atom_site_adp_type
_atom_site_occupancy
C1     C     0.52736   0.62870   0.59579   0.00000  Uiso   1.00
C2     C     0.58060   0.68486   0.63524   0.00000  Uiso   1.00
H3     H     0.46524   0.64683   0.58221   0.00000  Uiso   1.00
C4     C     0.77320   0.54956   0.63805   0.00000  Uiso   1.00
N5     N     0.82824   0.58359   0.69034   0.00000  Uiso   1.00
H6     H     0.78939   0.49404   0.60191   0.00000  Uiso   1.00
C7     C     0.91034   0.55267   0.70433   0.00000  Uiso   1.00
H8     H     0.94831   0.57048   0.64273   0.00000  Uiso   1.00
H9     H    -0.00741   0.61590   0.28168   0.00000  Uiso   1.00
C10    C     0.86939   0.02668   0.09119   0.00000  Uiso   1.00
C11    C     0.81217   0.08081   0.12931   0.00000  Uiso   1.00
H12    O     0.84925   0.94625   0.07099   0.00000  Uiso   1.00
C13    C     0.95622   0.26663   0.15324   0.00000  Uiso   1.00
N14    N     0.92019   0.32495   0.19841   0.00000  Uiso   1.00
H15    H     0.01855   0.27590   0.13117   0.00000  Uiso   1.00
C16    C     0.96064   0.39956   0.22795   0.00000  Uiso   1.00
H17    H     0.99096   0.42787   0.16598   0.00000  Uiso   1.00
H18    H     0.90884   0.48547   0.70947   0.00000  Uiso   1.00
C19    C     0.55356   0.55293   0.56470   0.00000  Uiso   1.00
C20    C     0.66321   0.66220   0.64866   0.00000  Uiso   1.00
O21    O     0.72146   0.72143   0.66831   0.00000  Uiso   1.00
H      H     0.79905   0.92666   0.10506   0.00000  Uiso   1.00
Si22   C     0.00000   0.00000   0.00000   0.00000  Uiso   1.00
Zn23   Ag    0.81085   0.68915   0.75000   0.00000  Uiso   1.00
Zn24   Ag    0.81107   0.31107   0.25000   0.00000  Uiso   1.00
loop_
_geom_bond_atom_site_label_1
_geom_bond_atom_site_label_2
_geom_bond_distance
_geom_bond_site_symmetry_2
_ccdc_geom_bond_type
C1     C19     1.390   .     A
C1     C2      1.389   .     A
C1     H3      1.082   .     S
C2     C20     1.422   .     A
C2     C13     1.497   6_655 S
C4     N5      1.295   .     D
C4     H6      1.079   .     S
C4     C11     1.501   6_655 S
N5     Zn23    1.951   .     S
N5     C7      1.457   .     S
C7     H8      1.110   .     S
C7     H18     1.108   .     S
C7     C7      1.550   8_666 S
H9     C16     1.110   2_665 S
C10    C11     1.403   .     A
C10    C19     1.390   6_644 A
C10    H12     1.394   1_545 S
C11    C4      1.501   6_644 S
C11    C20     1.425   6_644 A
H12    C10     1.394   1_565 S
H12    H       1.009   .     S
C13    N14     1.295   .     D
C13    C2      1.497   6_644 S
C13    H15     1.082   1_655 S
N14    Zn24    1.951   .     S
N14    C16     1.457   .     S
H15    C13     1.082   1_455 S
C16    H17     1.110   .     S
C16    H9      1.110   2_665 S
C16    C16     1.551   7_545 S
C19    C10     1.390   6_655 A
C19    Si22    1.539   5     S
C20    O21     1.394   .     S
C20    C11     1.425   6_655 A
O21    Zn23    1.943   .     S
O21    Zn24    1.947   4_656 S
Si22   C19     1.539   5_454 S
Si22   C19     1.539   6_544 S
Si22   C19     1.539   8     S
Si22   C19     1.539   7_445 S
Zn23   N5      1.951   8_666 S
Zn23   O21     1.943   8_666 S
Zn24   N14     1.951   7_545 S
Zn24   O21     1.947   3_566 S
Zn24   O21     1.947   6_644 S
