data_dAgAg02-nh2
_audit_creation_date              2025-09-02
_audit_creation_method            'Materials Studio'
_symmetry_space_group_name_H-M    'P-4N2'
_symmetry_Int_Tables_number       118
_symmetry_cell_setting            tetragonal
loop_
_symmetry_equiv_pos_as_xyz
  x,y,z
  -x,-y,z
  y,-x,-z
  -y,x,-z
  x+1/2,-y+1/2,z+1/2
  -x+1/2,y+1/2,z+1/2
  y+1/2,x+1/2,-z+1/2
  -y+1/2,-x+1/2,-z+1/2
_cell_length_a                    31.7307
_cell_length_b                    31.7307
_cell_length_c                    32.3853
_cell_angle_alpha                 90.0000
_cell_angle_beta                  90.0000
_cell_angle_gamma                 90.0000
loop_
_atom_site_label
_atom_site_type_symbol
_atom_site_fract_x
_atom_site_fract_y
_atom_site_fract_z
_atom_site_U_iso_or_equiv
_atom_site_adp_type
_atom_site_occupancy
C1     C     0.51383   0.55941   0.56259   0.00000  Uiso   1.00
C2     C     0.53808   0.58338   0.58940   0.00000  Uiso   1.00
H3     H     0.47981   0.56120   0.56394   0.00000  Uiso   1.00
H4     H     0.52290   0.60394   0.61151   0.00000  Uiso   1.00
C5     C     0.36398   0.68872   0.31630   0.00000  Uiso   1.00
C6     C     0.34072   0.71305   0.28898   0.00000  Uiso   1.00
H7     H     0.39444   0.69978   0.32673   0.00000  Uiso   1.00
C8     C     0.24594   0.63697   0.27519   0.00000  Uiso   1.00
N9     N     0.21355   0.65746   0.26156   0.00000  Uiso   1.00
H10    H     0.24290   0.60330   0.27897   0.00000  Uiso   1.00
C11    C     0.17311   0.63863   0.25066   0.00000  Uiso   1.00
H12    H     0.16442   0.61414   0.27361   0.00000  Uiso   1.00
H13    H     0.17581   0.62387   0.21970   0.00000  Uiso   1.00
C14    C     0.92321   0.03018   0.03289   0.00000  Uiso   1.00
C15    C     0.89892   0.05414   0.05974   0.00000  Uiso   1.00
H16    H     0.90801   1.00916   0.01127   0.00000  Uiso   1.00
H17    H     0.86491   0.05187   0.05872   0.00000  Uiso   1.00
C18    C     0.81003   0.86443   0.81830   0.00000  Uiso   1.00
C19    C     0.78573   0.84197   0.78956   0.00000  Uiso   1.00
N20    N     0.79504   0.90308   0.83566   0.00000  Uiso   1.00
C21    C     0.86169   0.74676   0.77618   0.00000  Uiso   1.00
N22    N     0.84140   0.71454   0.76184   0.00000  Uiso   1.00
H23    H     0.89501   0.74336   0.78249   0.00000  Uiso   1.00
C24    C     0.86041   0.67401   0.75148   0.00000  Uiso   1.00
H25    H     0.88388   0.66507   0.77536   0.00000  Uiso   1.00
H26    H     0.87655   0.67682   0.72120   0.00000  Uiso   1.00
C27    C     0.53309   0.53289   0.53417   0.00000  Uiso   1.00
C28    C     0.58173   0.58074   0.58805   0.00000  Uiso   1.00
C29    C     0.60524   0.39334   0.38375   0.00000  Uiso   1.00
C30    C     0.62603   0.37295   0.35981   0.00000  Uiso   1.00
C31    C     0.34892   0.65078   0.33101   0.00000  Uiso   1.00
C32    C     0.30095   0.69777   0.27517   0.00000  Uiso   1.00
O33    O     0.27880   0.71987   0.24500   0.00000  Uiso   1.00
H34    H     0.76391   0.91286   0.83212   0.00000  Uiso   1.00
H35    H     0.81444   0.92080   0.85504   0.00000  Uiso   1.00
Si36   Si    0.50000   0.50000   0.50000   0.00000  Uiso   1.00
Ag37   Ag    0.21768   0.71768   0.25000   0.00000  Uiso   1.00
Ag38   Ag    0.78114   0.71886   0.75000   0.00000  Uiso   1.00
loop_
_geom_bond_atom_site_label_1
_geom_bond_atom_site_label_2
_geom_bond_distance
_geom_bond_site_symmetry_2
_ccdc_geom_bond_type
C1     C27     1.389   .     A
C1     C2      1.387   .     A
C1     H3      1.082   .     S
C2     C28     1.389   .     A
C2     H4      1.082   .     S
C5     C31     1.380   .     A
C5     C6      1.387   .     A
C5     H7      1.082   .     S
C6     C32     1.424   .     A
C6     C21     1.497   5_464 S
C8     N9      1.294   .     D
C8     H10     1.080   .     S
C8     C19     1.502   5_464 S
N9     Ag37    1.951   .     S
N9     C11     1.459   .     S
C11    H12     1.110   .     S
C11    H13     1.110   .     S
C11    C11     1.547   7_455 S
C14    C15     1.389   .     A
C14    C27     1.390   6_644 A
C14    H16     1.081   1_545 S
C15    H17     1.082   .     S
C15    C28     1.389   6_644 A
H16    C14     1.081   1_565 S
C18    C19     1.403   .     A
C18    N20     1.431   .     S
C18    C31     1.387   5_565 A
C19    C8      1.502   5_565 S
C19    C32     1.429   5_565 A
N20    H34     1.042   .     S
N20    H35     1.043   .     S
C21    N22     1.294   .     D
C21    H23     1.082   .     S
C21    C6      1.497   5_565 S
N22    Ag38    1.955   .     S
N22    C24     1.459   .     S
C24    H25     1.110   .     S
C24    H26     1.110   .     S
C24    C24     1.548   8_666 S
C27    Si36    1.848   .     S
C27    C14     1.390   6_655 A
C28    C15     1.389   6_655 A
C28    C29     1.437   4_656 S
C29    C30     1.206   .     T
C29    C28     1.437   3_566 S
C30    C31     1.438   2_665 S
C31    C18     1.387   5_464 A
C31    C30     1.438   2_665 S
C32    O33     1.393   .     S
C32    C19     1.429   5_464 A
O33    Ag37    1.947   .     S
O33    Ag38    1.952   4_656 S
Si36   C27     1.848   2_665 S
Si36   C27     1.848   3_566 S
Si36   C27     1.848   4_656 S
Ag37   N9      1.951   7_455 S
Ag37   O33     1.947   7_455 S
Ag38   N22     1.955   8_666 S
Ag38   O33     1.952   3_566 S
Ag38   O33     1.952   5_565 S
