data_dAgAg03-oh
_audit_creation_date              2025-09-02
_audit_creation_method            'Materials Studio'
_symmetry_space_group_name_H-M    'P-4N2'
_symmetry_Int_Tables_number       118
_symmetry_cell_setting            tetragonal
loop_
_symmetry_equiv_pos_as_xyz
  x,y,z
  -x,-y,z
  y,-x,-z
  -y,x,-z
  x+1/2,-y+1/2,z+1/2
  -x+1/2,y+1/2,z+1/2
  y+1/2,x+1/2,-z+1/2
  -y+1/2,-x+1/2,-z+1/2
_cell_length_a                    23.8157
_cell_length_b                    23.8157
_cell_length_c                    28.3005
_cell_angle_alpha                 90.0000
_cell_angle_beta                  90.0000
_cell_angle_gamma                 90.0000
loop_
_atom_site_label
_atom_site_type_symbol
_atom_site_fract_x
_atom_site_fract_y
_atom_site_fract_z
_atom_site_U_iso_or_equiv
_atom_site_adp_type
_atom_site_occupancy
C1     C     0.53634   0.59613   0.52720   0.00000  Uiso   1.00
C2     C     0.56786   0.62929   0.55755   0.00000  Uiso   1.00
H3     H     0.51268   0.61653   0.49959   0.00000  Uiso   1.00
H4     H     0.56925   0.67422   0.55197   0.00000  Uiso   1.00
C5     C     0.37829   0.68437   0.35921   0.00000  Uiso   1.00
C6     C     0.34567   0.71963   0.33128   0.00000  Uiso   1.00
H7     H     0.41935   0.69840   0.37053   0.00000  Uiso   1.00
C8     C     0.21564   0.62213   0.32167   0.00000  Uiso   1.00
N9     N     0.18370   0.63869   0.28727   0.00000  Uiso   1.00
H10    H     0.20315   0.58545   0.34165   0.00000  Uiso   1.00
C11    C     0.13006   0.61295   0.27523   0.00000  Uiso   1.00
H12    H     0.09768   0.62786   0.30049   0.00000  Uiso   1.00
H13    H     0.13331   0.56653   0.27758   0.00000  Uiso   1.00
C14    C     0.93419   0.01391   0.06942   0.00000  Uiso   1.00
C15    C     0.90323   0.04717   0.10008   0.00000  Uiso   1.00
H16    H     0.93484   0.96891   0.07462   0.00000  Uiso   1.00
H17    H     0.88030   0.02759   0.12866   0.00000  Uiso   1.00
C18    C     0.80697   0.88694   0.85874   0.00000  Uiso   1.00
C19    C     0.77176   0.85265   0.83243   0.00000  Uiso   1.00
H20    O     0.78894   0.94124   0.86881   0.00000  Uiso   1.00
C21    C     0.87188   0.72904   0.81853   0.00000  Uiso   1.00
N22    N     0.85327   0.69476   0.78648   0.00000  Uiso   1.00
H23    H     0.91246   0.72004   0.83401   0.00000  Uiso   1.00
C24    C     0.88631   0.64809   0.76799   0.00000  Uiso   1.00
H25    H     0.90000   0.62054   0.79746   0.00000  Uiso   1.00
H26    H     0.92406   0.66518   0.75002   0.00000  Uiso   1.00
C27    C     0.53535   0.53775   0.53224   0.00000  Uiso   1.00
C28    C     0.59779   0.60521   0.59460   0.00000  Uiso   1.00
C29    C     0.35950   0.63187   0.37352   0.00000  Uiso   1.00
C30    C     0.29058   0.70162   0.31893   0.00000  Uiso   1.00
O31    O     0.25291   0.73888   0.29863   0.00000  Uiso   1.00
H      H     0.82061   0.96663   0.87918   0.00000  Uiso   1.00
C32    C     0.50000   0.50000   0.50000   0.00000  Uiso   1.00
Zn33   Ag    0.20527   0.70527   0.25000   0.00000  Uiso   1.00
Zn34   Ag    0.78590   0.71410   0.75000   0.00000  Uiso   1.00
loop_
_geom_bond_atom_site_label_1
_geom_bond_atom_site_label_2
_geom_bond_distance
_geom_bond_site_symmetry_2
_ccdc_geom_bond_type
C1     C27     1.398   .     A
C1     C2      1.387   .     A
C1     H3      1.079   .     S
C2     C28     1.391   .     A
C2     H4      1.082   .     S
C5     C29     1.388   .     A
C5     C6      1.391   .     A
C5     H7      1.082   .     S
C6     C30     1.424   .     A
C6     C21     1.419   5_464 A
C8     N9      1.297   .     D
C8     H10     1.082   .     S
C8     C19     1.497   5_464 S
N9     Zn33    1.972   .     S
N9     C11     1.457   .     S
C11    H12     1.110   .     S
C11    H13     1.110   .     S
C11    C11     1.540   7_455 S
C14    C15     1.387   .     A
C14    C27     1.399   6_644 A
C14    H16     1.082   1_545 S
C15    H17     1.081   .     S
C15    C28     1.391   6_644 A
H16    C14     1.082   1_565 S
C18    C19     1.387   .     A
C18    H20     1.392   .     S
C18    C29     1.393   5_565 A
C19    C8      1.497   5_565 S
C19    C30     1.420   5_565 A
H20    H       1.010   .     S
C21    N22     1.298   .     D
C21    H23     1.082   .     S
C21    C6      1.419   5_565 A
N22    Zn34    1.963   .     S
N22    C24     1.459   .     S
C24    H25     1.110   .     S
C24    H26     1.110   .     S
C24    C24     1.543   8_666 S
C27    C32     1.533   .     S
C27    C14     1.399   6_655 A
C28    C15     1.391   6_655 A
C28    C29     1.476   3_566 S
C29    C18     1.393   5_464 A
C29    C28     1.476   4_656 S
C30    O31     1.386   .     S
C30    C19     1.420   5_464 A
O31    Zn33    1.955   .     S
O31    Zn34    1.940   4_656 S
C32    C27     1.533   2_665 S
C32    C27     1.533   3_566 S
C32    C27     1.533   4_656 S
Zn33   N9      1.972   7_455 S
Zn33   O31     1.955   7_455 S
Zn33   Zn34    2.716   4_656 S
Zn34   N22     1.963   8_666 S
Zn34   O31     1.940   3_566 S
Zn34   O31     1.940   5_565 S
Zn34   Zn33    2.716   3_566 S
