data_dAgAg04-ch3
_audit_creation_date              2025-09-02
_audit_creation_method            'Materials Studio'
_symmetry_space_group_name_H-M    'P-4N2'
_symmetry_Int_Tables_number       118
_symmetry_cell_setting            tetragonal
loop_
_symmetry_equiv_pos_as_xyz
  x,y,z
  -x,-y,z
  y,-x,-z
  -y,x,-z
  x+1/2,-y+1/2,z+1/2
  -x+1/2,y+1/2,z+1/2
  y+1/2,x+1/2,-z+1/2
  -y+1/2,-x+1/2,-z+1/2
_cell_length_a                    25.2290
_cell_length_b                    25.2290
_cell_length_c                    27.5664
_cell_angle_alpha                 90.0000
_cell_angle_beta                  90.0000
_cell_angle_gamma                 90.0000
loop_
_atom_site_label
_atom_site_type_symbol
_atom_site_fract_x
_atom_site_fract_y
_atom_site_fract_z
_atom_site_U_iso_or_equiv
_atom_site_adp_type
_atom_site_occupancy
C1     C     0.54094   0.59929   0.52765   0.00000  Uiso   1.00
C2     C     0.57029   0.63349   0.55643   0.00000  Uiso   1.00
H3     H     0.52059   0.61447   0.49608   0.00000  Uiso   1.00
H4     H     0.57302   0.67488   0.54653   0.00000  Uiso   1.00
C5     C     0.36475   0.67945   0.35960   0.00000  Uiso   1.00
C6     C     0.33201   0.71325   0.33366   0.00000  Uiso   1.00
H7     H     0.40341   0.69335   0.37089   0.00000  Uiso   1.00
C8     C     0.20964   0.62120   0.32329   0.00000  Uiso   1.00
N9     N     0.17944   0.63733   0.28829   0.00000  Uiso   1.00
H10    H     0.19672   0.58724   0.34406   0.00000  Uiso   1.00
C11    C     0.12851   0.61357   0.27615   0.00000  Uiso   1.00
H12    H     0.09791   0.62913   0.30133   0.00000  Uiso   1.00
H13    H     0.13071   0.56979   0.27973   0.00000  Uiso   1.00
C14    C     0.93475   0.02655   0.07919   0.00000  Uiso   1.00
C15    C     0.90583   0.06083   0.10838   0.00000  Uiso   1.00
H16    H     0.93649   0.98480   0.08793   0.00000  Uiso   1.00
H17    H     0.88527   0.04546   0.13981   0.00000  Uiso   1.00
C18    C     0.79921   0.89000   0.85775   0.00000  Uiso   1.00
C19    C     0.76375   0.85649   0.83332   0.00000  Uiso   1.00
C20    C     0.78428   0.94698   0.86591   0.00000  Uiso   1.00
C21    C     0.85492   0.73319   0.82347   0.00000  Uiso   1.00
N22    N     0.83890   0.70293   0.78843   0.00000  Uiso   1.00
H23    H     0.88950   0.72118   0.84394   0.00000  Uiso   1.00
C24    C     0.86297   0.65220   0.77610   0.00000  Uiso   1.00
H25    H     0.84789   0.62149   0.80141   0.00000  Uiso   1.00
H26    H     0.90675   0.65475   0.77941   0.00000  Uiso   1.00
C27    C     0.53840   0.54574   0.53887   0.00000  Uiso   1.00
C28    C     0.59644   0.61474   0.59752   0.00000  Uiso   1.00
C29    C     0.34904   0.62864   0.37230   0.00000  Uiso   1.00
C30    C     0.28044   0.69570   0.32099   0.00000  Uiso   1.00
O31    O     0.24488   0.73110   0.30023   0.00000  Uiso   1.00
H32    H     0.75313   0.94966   0.89421   0.00000  Uiso   1.00
H33    H     0.76950   0.96438   0.83150   0.00000  Uiso   1.00
H34    H     0.81911   0.97062   0.87733   0.00000  Uiso   1.00
Si35   Si    0.50000   0.50000   0.50000   0.00000  Uiso   1.00
Ag36   Ag    0.19999   0.69999   0.25000   0.00000  Uiso   1.00
Ag37   Ag    0.77621   0.72379   0.75000   0.00000  Uiso   1.00
loop_
_geom_bond_atom_site_label_1
_geom_bond_atom_site_label_2
_geom_bond_distance
_geom_bond_site_symmetry_2
_ccdc_geom_bond_type
C1     C27     1.388   .     A
C1     C2      1.386   .     A
C1     H3      1.081   .     S
C2     C28     1.394   .     A
C2     H4      1.082   .     S
C5     C29     1.387   .     A
C5     C6      1.386   .     A
C5     H7      1.082   .     S
C6     C30     1.418   .     A
C6     C21     1.496   5_464 S
C8     N9      1.295   .     D
C8     H10     1.081   .     S
C8     C19     1.502   5_464 S
N9     Ag36    1.970   .     S
N9     C11     1.457   .     S
C11    H12     1.110   .     S
C11    H13     1.110   .     S
C11    C11     1.537   7_455 S
C14    C15     1.388   .     A
C14    C27     1.389   6_644 A
C14    H16     1.081   1_545 S
C15    H17     1.082   .     S
C15    C28     1.394   6_644 A
H16    C14     1.081   1_565 S
C18    C19     1.403   .     A
C18    C20     1.503   .     S
C18    C29     1.401   5_565 A
C19    C8      1.502   5_565 S
C19    C30     1.424   5_565 A
C20    H32     1.110   .     S
C20    H33     1.110   .     S
C20    H34     1.108   .     S
C21    N22     1.296   .     D
C21    H23     1.082   .     S
C21    C6      1.496   5_565 S
N22    Ag37    1.975   .     S
N22    C24     1.457   .     S
C24    H25     1.110   .     S
C24    H26     1.110   .     S
C24    C24     1.538   8_666 S
C27    Si35    1.849   .     S
C27    C14     1.389   6_655 A
C28    C15     1.394   6_655 A
C28    C29     1.479   3_566 S
C29    C18     1.401   5_464 A
C29    C28     1.479   4_656 S
C30    O31     1.389   .     S
C30    C19     1.424   5_464 A
O31    Ag36    1.954   .     S
O31    Ag37    1.959   4_656 S
Si35   C27     1.849   2_665 S
Si35   C27     1.849   3_566 S
Si35   C27     1.849   4_656 S
Ag36   N9      1.970   7_455 S
Ag36   O31     1.954   7_455 S
Ag36   Ag37    2.720   4_656 S
Ag37   N22     1.975   8_666 S
Ag37   O31     1.959   3_566 S
Ag37   O31     1.959   5_565 S
Ag37   Ag36    2.720   3_566 S
