data_dAgAg04-oh
_audit_creation_date              2025-09-02
_audit_creation_method            'Materials Studio'
_symmetry_space_group_name_H-M    'P-4N2'
_symmetry_Int_Tables_number       118
_symmetry_cell_setting            tetragonal
loop_
_symmetry_equiv_pos_as_xyz
  x,y,z
  -x,-y,z
  y,-x,-z
  -y,x,-z
  x+1/2,-y+1/2,z+1/2
  -x+1/2,y+1/2,z+1/2
  y+1/2,x+1/2,-z+1/2
  -y+1/2,-x+1/2,-z+1/2
_cell_length_a                    25.0102
_cell_length_b                    25.0102
_cell_length_c                    27.9172
_cell_angle_alpha                 90.0000
_cell_angle_beta                  90.0000
_cell_angle_gamma                 90.0000
loop_
_atom_site_label
_atom_site_type_symbol
_atom_site_fract_x
_atom_site_fract_y
_atom_site_fract_z
_atom_site_U_iso_or_equiv
_atom_site_adp_type
_atom_site_occupancy
C1     C     0.53939   0.59966   0.53154   0.00000  Uiso   1.00
C2     C     0.56957   0.63292   0.56070   0.00000  Uiso   1.00
H3     H     0.51613   0.61666   0.50270   0.00000  Uiso   1.00
H4     H     0.57022   0.67545   0.55363   0.00000  Uiso   1.00
C5     C     0.36972   0.68388   0.35880   0.00000  Uiso   1.00
C6     C     0.33701   0.71821   0.33294   0.00000  Uiso   1.00
H7     H     0.40869   0.69772   0.37017   0.00000  Uiso   1.00
C8     C     0.21476   0.62399   0.32165   0.00000  Uiso   1.00
N9     N     0.18382   0.64027   0.28737   0.00000  Uiso   1.00
H10    H     0.20336   0.58861   0.34151   0.00000  Uiso   1.00
C11    C     0.13267   0.61577   0.27539   0.00000  Uiso   1.00
H12    H     0.10210   0.62954   0.30143   0.00000  Uiso   1.00
H13    H     0.13592   0.57154   0.27730   0.00000  Uiso   1.00
C14    C     0.93016   0.02334   0.07597   0.00000  Uiso   1.00
C15    C     0.90033   0.05656   0.10547   0.00000  Uiso   1.00
H16    H     0.93000   0.98060   0.08189   0.00000  Uiso   1.00
H17    H     0.87718   0.03931   0.13432   0.00000  Uiso   1.00
C18    C     0.80286   0.88511   0.85716   0.00000  Uiso   1.00
C19    C     0.76814   0.85183   0.83229   0.00000  Uiso   1.00
H20    O     0.78666   0.93743   0.86601   0.00000  Uiso   1.00
C21    C     0.86037   0.72788   0.82283   0.00000  Uiso   1.00
N22    N     0.84441   0.69745   0.78808   0.00000  Uiso   1.00
H23    H     0.89517   0.71579   0.84316   0.00000  Uiso   1.00
C24    C     0.86874   0.64632   0.77584   0.00000  Uiso   1.00
H25    H     0.85339   0.61523   0.80065   0.00000  Uiso   1.00
H26    H     0.91289   0.64886   0.77931   0.00000  Uiso   1.00
C27    C     0.53970   0.54477   0.53891   0.00000  Uiso   1.00
C28    C     0.59952   0.61170   0.59826   0.00000  Uiso   1.00
C29    C     0.35317   0.63283   0.37151   0.00000  Uiso   1.00
C30    C     0.28501   0.70064   0.32010   0.00000  Uiso   1.00
O31    O     0.24924   0.73620   0.29939   0.00000  Uiso   1.00
H      H     0.81735   0.96150   0.87544   0.00000  Uiso   1.00
Si32   Si    0.50000   0.50000   0.50000   0.00000  Uiso   1.00
Zn33   Ag    0.20412   0.70412   0.25000   0.00000  Uiso   1.00
Zn34   Ag    0.78134   0.71866   0.75000   0.00000  Uiso   1.00
loop_
_geom_bond_atom_site_label_1
_geom_bond_atom_site_label_2
_geom_bond_distance
_geom_bond_site_symmetry_2
_ccdc_geom_bond_type
C1     C27     1.388   .     A
C1     C2      1.387   .     A
C1     H3      1.081   .     S
C2     C28     1.394   .     A
C2     H4      1.082   .     S
C5     C29     1.388   .     A
C5     C6      1.388   .     A
C5     H7      1.082   .     S
C6     C30     1.419   .     A
C6     C21     1.496   5_464 S
C8     N9      1.296   .     D
C8     H10     1.082   .     S
C8     C19     1.495   5_464 S
N9     Zn33    1.974   .     S
N9     C11     1.457   .     S
C11    H12     1.110   .     S
C11    H13     1.110   .     S
C11    C11     1.539   7_455 S
C14    C15     1.387   .     A
C14    C27     1.388   6_644 A
C14    H16     1.082   1_545 S
C15    H17     1.082   .     S
C15    C28     1.394   6_644 A
H16    C14     1.082   1_565 S
C18    C19     1.389   .     A
C18    H20     1.392   .     S
C18    C29     1.395   5_565 A
C19    C8      1.495   5_565 S
C19    C30     1.420   5_565 A
H20    H       1.010   .     S
C21    N22     1.296   .     D
C21    H23     1.082   .     S
C21    C6      1.496   5_565 S
N22    Zn34    1.975   .     S
N22    C24     1.457   .     S
C24    H25     1.110   .     S
C24    H26     1.110   .     S
C24    C24     1.538   8_666 S
C27    Si32    1.849   .     S
C27    C14     1.388   6_655 A
C28    C15     1.394   6_655 A
C28    C29     1.476   3_566 S
C29    C18     1.395   5_464 A
C29    C28     1.476   4_656 S
C30    O31     1.388   .     S
C30    C19     1.420   5_464 A
O31    Zn33    1.954   .     S
O31    Zn34    1.954   4_656 S
Si32   C27     1.849   2_665 S
Si32   C27     1.849   3_566 S
Si32   C27     1.849   4_656 S
Zn33   N9      1.974   7_455 S
Zn33   O31     1.954   7_455 S
Zn33   Zn34    2.731   4_656 S
Zn34   N22     1.975   8_666 S
Zn34   O31     1.954   3_566 S
Zn34   O31     1.954   5_565 S
Zn34   Zn33    2.731   3_566 S
