data_dAgAg10-nh2
_audit_creation_date              2025-09-02
_audit_creation_method            'Materials Studio'
_symmetry_space_group_name_H-M    'P-4N2'
_symmetry_Int_Tables_number       118
_symmetry_cell_setting            tetragonal
loop_
_symmetry_equiv_pos_as_xyz
  x,y,z
  -x,-y,z
  y,-x,-z
  -y,x,-z
  x+1/2,-y+1/2,z+1/2
  -x+1/2,y+1/2,z+1/2
  y+1/2,x+1/2,-z+1/2
  -y+1/2,-x+1/2,-z+1/2
_cell_length_a                    33.0500
_cell_length_b                    33.0500
_cell_length_c                    40.4960
_cell_angle_alpha                 90.0000
_cell_angle_beta                  90.0000
_cell_angle_gamma                 90.0000
loop_
_atom_site_label
_atom_site_type_symbol
_atom_site_fract_x
_atom_site_fract_y
_atom_site_fract_z
_atom_site_U_iso_or_equiv
_atom_site_adp_type
_atom_site_occupancy
C1     C     0.55636   0.44164   0.55473   0.00000  Uiso   1.00
C2     C     0.58299   0.46028   0.57643   0.00000  Uiso   1.00
C3     C     0.55292   0.39978   0.55439   0.00000  Uiso   1.00
C4     C     0.60639   0.43704   0.59767   0.00000  Uiso   1.00
H5     H     0.58572   0.49289   0.57662   0.00000  Uiso   1.00
C6     C     0.57630   0.37652   0.57562   0.00000  Uiso   1.00
H7     H     0.53224   0.38525   0.53742   0.00000  Uiso   1.00
C8     C     0.60316   0.39512   0.59722   0.00000  Uiso   1.00
H9     H     0.62734   0.45160   0.61442   0.00000  Uiso   1.00
H10    H     0.57377   0.34389   0.57517   0.00000  Uiso   1.00
C11    C     0.37105   0.37194   0.38133   0.00000  Uiso   1.00
C12    C     0.35093   0.35075   0.36349   0.00000  Uiso   1.00
C13    C     0.67476   0.32699   0.65763   0.00000  Uiso   1.00
C14    C     0.71183   0.34192   0.66814   0.00000  Uiso   1.00
C15    C     0.66182   0.28912   0.66733   0.00000  Uiso   1.00
C16    C     0.73722   0.31839   0.68821   0.00000  Uiso   1.00
N17    N     0.72317   0.38200   0.65853   0.00000  Uiso   1.00
C18    C     0.68493   0.26506   0.68809   0.00000  Uiso   1.00
H19    H     0.63276   0.27828   0.65874   0.00000  Uiso   1.00
C20    C     0.72329   0.27959   0.69884   0.00000  Uiso   1.00
C21    C     0.66635   0.22495   0.69612   0.00000  Uiso   1.00
O22    O     0.74849   0.25448   0.71729   0.00000  Uiso   1.00
N23    N     0.67596   0.20390   0.72190   0.00000  Uiso   1.00
H24    H     0.64128   0.21477   0.68107   0.00000  Uiso   1.00
C25    C     0.65673   0.16600   0.73166   0.00000  Uiso   1.00
H26    H     0.66888   0.14118   0.71608   0.00000  Uiso   1.00
H27    H     0.62350   0.16804   0.72798   0.00000  Uiso   1.00
C28    C     0.16405   0.72188   0.80423   0.00000  Uiso   1.00
Si29   Si    0.47353   0.52766   0.52583   0.00000  Uiso   1.00
O30    O     0.44916   0.50112   0.50000   0.00000  Uiso   1.00
N31    N     0.17329   0.70122   0.77815   0.00000  Uiso   1.00
C32    C     0.15456   0.66304   0.76847   0.00000  Uiso   1.00
H33    H     0.14052   0.71016   0.82006   0.00000  Uiso   1.00
H34    H     0.12141   0.66433   0.77278   0.00000  Uiso   1.00
H35    H     0.16770   0.63828   0.78357   0.00000  Uiso   1.00
H36    H     0.74750   0.39697   0.66941   0.00000  Uiso   1.00
H37    H     0.70518   0.39827   0.64204   0.00000  Uiso   1.00
Ag38   Ag    0.72095   0.22095   0.75000   0.00000  Uiso   1.00
O39    O     0.50000   0.50000   0.54644   0.00000  Uiso   1.00
Ag40   Ag    0.21813   0.71813   0.75000   0.00000  Uiso   1.00
loop_
_geom_bond_atom_site_label_1
_geom_bond_atom_site_label_2
_geom_bond_distance
_geom_bond_site_symmetry_2
_ccdc_geom_bond_type
C1     C2      1.388   .     D
C1     C3      1.388   .     S
C1     Si29    1.837   2_665 S
C2     C4      1.389   .     S
C2     H5      1.082   .     S
C3     C6      1.389   .     D
C3     H7      1.082   .     S
C4     C8      1.390   .     D
C4     H9      1.082   .     S
C6     C8      1.390   .     S
C6     H10     1.082   .     S
C8     C11     1.437   4_656 S
C11    C12     1.206   .     T
C11    C8      1.437   3_566 S
C12    C13     1.438   3_566 S
C13    C14     1.388   .     D
C13    C15     1.380   .     S
C13    C12     1.438   4_656 S
C14    C16     1.403   .     S
C14    N17     1.431   .     S
C15    C18     1.387   .     D
C15    H19     1.082   .     S
C16    C20     1.429   .     D
C16    C28     1.502   8_656 S
N17    H36     1.042   .     S
N17    H37     1.043   .     S
C18    C20     1.424   .     S
C18    C21     1.497   .     S
C20    O22     1.393   .     S
C21    N23     1.294   .     D
C21    H24     1.082   .     S
O22    Ag38    1.952   .     S
O22    Ag40    1.947   2_665 S
N23    Ag38    1.955   .     S
N23    C25     1.459   .     S
C25    H26     1.110   .     S
C25    H27     1.110   .     S
C25    C25     1.547   7_546 S
C28    N31     1.294   .     D
C28    H33     1.080   .     S
C28    C16     1.502   8_566 S
Si29   O30     1.585   .     S
Si29   O39     1.516   .     S
Si29   C1      1.837   2_665 S
Si29   O30     1.585   3_566 S
Si29   Si29    2.531   2_665 S
O30    Si29    1.585   4_656 S
N31    C32     1.459   .     S
N31    Ag40    1.951   .     S
C32    H34     1.110   .     S
C32    H35     1.110   .     S
C32    C32     1.548   7_456 S
Ag38   O22     1.952   7_546 S
Ag38   N23     1.955   7_546 S
O39    Si29    1.516   2_665 S
Ag40   N31     1.951   7_456 S
Ag40   O22     1.947   2_665 S
Ag40   O22     1.947   8_566 S
