data_dAgAg06
_audit_creation_date              2025-09-02
_audit_creation_method            'Materials Studio'
_symmetry_space_group_name_H-M    'P-4N2'
_symmetry_Int_Tables_number       118
_symmetry_cell_setting            tetragonal
loop_
_symmetry_equiv_pos_as_xyz
  x,y,z
  -x,-y,z
  y,-x,-z
  -y,x,-z
  x+1/2,-y+1/2,z+1/2
  -x+1/2,y+1/2,z+1/2
  y+1/2,x+1/2,-z+1/2
  -y+1/2,-x+1/2,-z+1/2
_cell_length_a                    16.5267
_cell_length_b                    16.5267
_cell_length_c                    13.9651
_cell_angle_alpha                 90.0000
_cell_angle_beta                  90.0000
_cell_angle_gamma                 90.0000
loop_
_atom_site_label
_atom_site_type_symbol
_atom_site_fract_x
_atom_site_fract_y
_atom_site_fract_z
_atom_site_U_iso_or_equiv
_atom_site_adp_type
_atom_site_occupancy
C1     C     0.52693   0.62892   0.59592   0.00000  Uiso   1.00
C2     C     0.57991   0.68487   0.63621   0.00000  Uiso   1.00
H3     H     0.46549   0.64744   0.58067   0.00000  Uiso   1.00
C4     C     0.76673   0.54377   0.65312   0.00000  Uiso   1.00
N5     N     0.82491   0.57974   0.69851   0.00000  Uiso   1.00
H6     H     0.77621   0.48197   0.63010   0.00000  Uiso   1.00
C7     C     0.89997   0.53988   0.72641   0.00000  Uiso   1.00
H8     H     0.92848   0.51223   0.66234   0.00000  Uiso   1.00
H9     H    -0.00874   0.61443   0.27850   0.00000  Uiso   1.00
C10    C     0.87108   0.02693   0.09592   0.00000  Uiso   1.00
C11    C     0.81513   0.07990   0.13621   0.00000  Uiso   1.00
H12    H     0.85256   0.96550   0.08067   0.00000  Uiso   1.00
C13    C     0.95623   0.26674   0.15312   0.00000  Uiso   1.00
N14    N     0.92025   0.32491   0.19851   0.00000  Uiso   1.00
H15    H     0.01804   0.27621   0.13009   0.00000  Uiso   1.00
C16    C     0.96011   0.39997   0.22641   0.00000  Uiso   1.00
H17    H     0.98778   0.42848   0.16234   0.00000  Uiso   1.00
H18    H     0.88557   0.49126   0.77849   0.00000  Uiso   1.00
C19    C     0.55286   0.55285   0.56601   0.00000  Uiso   1.00
C20    C     0.66165   0.66165   0.65222   0.00000  Uiso   1.00
O21    O     0.72025   0.72026   0.67045   0.00000  Uiso   1.00
Si22   C     0.00000   0.00000   0.00000   0.00000  Uiso   1.00
Zn23   Ag    0.81136   0.68864   0.75000   0.00000  Uiso   1.00
Zn24   Ag    0.81136   0.31136   0.25000   0.00000  Uiso   1.00
loop_
_geom_bond_atom_site_label_1
_geom_bond_atom_site_label_2
_geom_bond_distance
_geom_bond_site_symmetry_2
_ccdc_geom_bond_type
C1     C19     1.392   .     A
C1     C2      1.392   .     A
C1     H3      1.082   .     S
C2     C20     1.422   .     A
C2     C13     1.498   6_655 S
C4     N5      1.296   .     D
C4     H6      1.082   .     S
C4     C11     1.498   6_655 S
N5     Zn23    1.951   .     S
N5     C7      1.458   .     S
C7     H8      1.110   .     S
C7     H18     1.110   .     S
C7     C7      1.552   8_666 S
H9     C16     1.110   2_665 S
C10    C11     1.392   .     A
C10    C19     1.392   6_644 A
C10    H12     1.082   1_545 S
C11    C4      1.498   6_644 S
C11    C20     1.422   6_644 A
H12    C10     1.082   1_565 S
C13    N14     1.296   .     D
C13    C2      1.498   6_644 S
C13    H15     1.082   1_655 S
N14    Zn24    1.951   .     S
N14    C16     1.458   .     S
H15    C13     1.082   1_455 S
C16    H17     1.110   .     S
C16    H9      1.110   2_665 S
C16    C16     1.552   7_545 S
C19    C10     1.392   6_655 A
C19    Si22    1.541   5     S
C20    O21     1.393   .     S
C20    C11     1.422   6_655 A
O21    Zn23    1.943   .     S
O21    Zn24    1.943   4_656 S
Si22   C19     1.541   5_454 S
Si22   C19     1.541   6_544 S
Si22   C19     1.541   8     S
Si22   C19     1.541   7_445 S
Zn23   N5      1.951   8_666 S
Zn23   O21     1.943   8_666 S
Zn24   N14     1.951   7_545 S
Zn24   O21     1.943   3_566 S
Zn24   O21     1.943   6_644 S
