data_dAgAg01-ch3
_audit_creation_date              2025-09-02
_audit_creation_method            'Materials Studio'
_symmetry_space_group_name_H-M    'P-4N2'
_symmetry_Int_Tables_number       118
_symmetry_cell_setting            tetragonal
loop_
_symmetry_equiv_pos_as_xyz
  x,y,z
  -x,-y,z
  y,-x,-z
  -y,x,-z
  x+1/2,-y+1/2,z+1/2
  -x+1/2,y+1/2,z+1/2
  y+1/2,x+1/2,-z+1/2
  -y+1/2,-x+1/2,-z+1/2
_cell_length_a                    30.3743
_cell_length_b                    30.3743
_cell_length_c                    33.0547
_cell_angle_alpha                 90.0000
_cell_angle_beta                  90.0000
_cell_angle_gamma                 90.0000
loop_
_atom_site_label
_atom_site_type_symbol
_atom_site_fract_x
_atom_site_fract_y
_atom_site_fract_z
_atom_site_U_iso_or_equiv
_atom_site_adp_type
_atom_site_occupancy
C1     C     0.50776   0.55652   0.55575   0.00000  Uiso   1.00
C2     C     0.53233   0.58113   0.58297   0.00000  Uiso   1.00
H3     H     0.47224   0.55911   0.55616   0.00000  Uiso   1.00
H4     H     0.51587   0.60279   0.60410   0.00000  Uiso   1.00
C5     C     0.37023   0.69032   0.32056   0.00000  Uiso   1.00
C6     C     0.34702   0.71541   0.29199   0.00000  Uiso   1.00
C7     C     0.41366   0.70595   0.33671   0.00000  Uiso   1.00
C8     C     0.24736   0.63619   0.27927   0.00000  Uiso   1.00
N9     N     0.21425   0.65682   0.26353   0.00000  Uiso   1.00
H10    H     0.24354   0.60164   0.28645   0.00000  Uiso   1.00
C11    C     0.17232   0.63653   0.25270   0.00000  Uiso   1.00
H12    H     0.16204   0.61303   0.27663   0.00000  Uiso   1.00
H13    H     0.17641   0.61841   0.22379   0.00000  Uiso   1.00
C14    C     0.92581   0.02459   0.02941   0.00000  Uiso   1.00
C15    C     0.90132   0.04923   0.05670   0.00000  Uiso   1.00
H16    H     0.90876   1.00185   0.00979   0.00000  Uiso   1.00
H17    H     0.86588   0.04586   0.05744   0.00000  Uiso   1.00
C18    C     0.81355   0.86494   0.82024   0.00000  Uiso   1.00
C19    C     0.78902   0.84153   0.79214   0.00000  Uiso   1.00
H20    H     0.80139   0.89618   0.83135   0.00000  Uiso   1.00
C21    C     0.86909   0.74288   0.77825   0.00000  Uiso   1.00
N22    N     0.84811   0.70970   0.76305   0.00000  Uiso   1.00
H23    H     0.90383   0.73886   0.78421   0.00000  Uiso   1.00
C24    C     0.86817   0.66771   0.75206   0.00000  Uiso   1.00
H25    H     0.89244   0.65774   0.77544   0.00000  Uiso   1.00
H26    H     0.88534   0.67154   0.72262   0.00000  Uiso   1.00
C27    C     0.52831   0.52843   0.52802   0.00000  Uiso   1.00
C28    C     0.57782   0.57759   0.58341   0.00000  Uiso   1.00
C29    C     0.60231   0.39675   0.38784   0.00000  Uiso   1.00
C30    C     0.62267   0.37518   0.36357   0.00000  Uiso   1.00
C31    C     0.35333   0.65063   0.33450   0.00000  Uiso   1.00
C32    C     0.30559   0.69943   0.27770   0.00000  Uiso   1.00
O33    O     0.28339   0.72165   0.24699   0.00000  Uiso   1.00
H34    H     0.43815   0.70738   0.31184   0.00000  Uiso   1.00
H35    H     0.42628   0.68322   0.36024   0.00000  Uiso   1.00
H36    H     0.40969   0.73903   0.35047   0.00000  Uiso   1.00
C37    C     0.50000   0.50000   0.50000   0.00000  Uiso   1.00
Ag38   Ag    0.21926   0.71926   0.25000   0.00000  Uiso   1.00
Ag39   Ag    0.78562   0.71438   0.75000   0.00000  Uiso   1.00
loop_
_geom_bond_atom_site_label_1
_geom_bond_atom_site_label_2
_geom_bond_distance
_geom_bond_site_symmetry_2
_ccdc_geom_bond_type
C1     C27     1.399   .     A
C1     C2      1.387   .     A
C1     H3      1.082   .     S
C2     C28     1.386   .     A
C2     H4      1.082   .     S
C5     C31     1.389   .     A
C5     C6      1.403   .     A
C5     C7      1.500   .     S
C6     C32     1.429   .     A
C6     C21     1.503   5_464 S
C7     H34     1.110   .     S
C7     H35     1.108   .     S
C7     H36     1.110   .     S
C8     N9      1.294   .     D
C8     H10     1.082   .     S
C8     C19     1.497   5_464 S
N9     Ag38    1.954   .     S
N9     C11     1.459   .     S
C11    H12     1.110   .     S
C11    H13     1.110   .     S
C11    C11     1.548   7_455 S
C14    C15     1.388   .     A
C14    C27     1.399   6_644 A
C14    H16     1.080   1_545 S
C15    H17     1.082   .     S
C15    C28     1.387   6_644 A
H16    C14     1.080   1_565 S
C18    C19     1.387   .     A
C18    H20     1.082   .     S
C18    C31     1.381   5_565 A
C19    C8      1.497   5_565 S
C19    C32     1.424   5_565 A
C21    N22     1.294   .     D
C21    H23     1.080   .     S
C21    C6      1.503   5_565 S
N22    Ag39    1.952   .     S
N22    C24     1.459   .     S
C24    H25     1.110   .     S
C24    H26     1.110   .     S
C24    C24     1.547   8_666 S
C27    C37     1.531   .     S
C27    C14     1.399   6_655 A
C28    C15     1.387   6_655 A
C28    C29     1.436   4_656 S
C29    C30     1.206   .     T
C29    C28     1.436   3_566 S
C30    C31     1.438   2_665 S
C31    C18     1.381   5_464 A
C31    C30     1.438   2_665 S
C32    O33     1.393   .     S
C32    C19     1.424   5_464 A
O33    Ag38    1.952   .     S
O33    Ag39    1.947   4_656 S
C37    C27     1.531   2_665 S
C37    C27     1.531   3_566 S
C37    C27     1.531   4_656 S
Ag38   N9      1.954   7_455 S
Ag38   O33     1.952   7_455 S
Ag39   N22     1.952   8_666 S
Ag39   O33     1.947   3_566 S
Ag39   O33     1.947   5_565 S
