data_dAgAg10-oh
_audit_creation_date              2025-09-02
_audit_creation_method            'Materials Studio'
_symmetry_space_group_name_H-M    'P-4N2'
_symmetry_Int_Tables_number       118
_symmetry_cell_setting            tetragonal
loop_
_symmetry_equiv_pos_as_xyz
  x,y,z
  -x,-y,z
  y,-x,-z
  -y,x,-z
  x+1/2,-y+1/2,z+1/2
  -x+1/2,y+1/2,z+1/2
  y+1/2,x+1/2,-z+1/2
  -y+1/2,-x+1/2,-z+1/2
_cell_length_a                    33.0002
_cell_length_b                    33.0002
_cell_length_c                    40.6504
_cell_angle_alpha                 90.0000
_cell_angle_beta                  90.0000
_cell_angle_gamma                 90.0000
loop_
_atom_site_label
_atom_site_type_symbol
_atom_site_fract_x
_atom_site_fract_y
_atom_site_fract_z
_atom_site_U_iso_or_equiv
_atom_site_adp_type
_atom_site_occupancy
C1     C     0.55692   0.44204   0.55453   0.00000  Uiso   1.00
C2     C     0.58343   0.46086   0.57621   0.00000  Uiso   1.00
C3     C     0.55367   0.40010   0.55422   0.00000  Uiso   1.00
C4     C     0.60680   0.43772   0.59752   0.00000  Uiso   1.00
H5     H     0.58602   0.49353   0.57637   0.00000  Uiso   1.00
C6     C     0.57702   0.37694   0.57553   0.00000  Uiso   1.00
H7     H     0.53310   0.38545   0.53727   0.00000  Uiso   1.00
C8     C     0.60366   0.39573   0.59716   0.00000  Uiso   1.00
H9     H     0.62757   0.45242   0.61430   0.00000  Uiso   1.00
H10    H     0.57455   0.34426   0.57516   0.00000  Uiso   1.00
C11    C     0.37171   0.37180   0.38110   0.00000  Uiso   1.00
C12    C     0.35147   0.35111   0.36297   0.00000  Uiso   1.00
C13    C     0.67356   0.32723   0.65851   0.00000  Uiso   1.00
C14    C     0.71116   0.34110   0.66871   0.00000  Uiso   1.00
C15    C     0.65967   0.28974   0.66868   0.00000  Uiso   1.00
C16    C     0.73540   0.31792   0.68934   0.00000  Uiso   1.00
H17    O     0.72537   0.37868   0.65832   0.00000  Uiso   1.00
C18    C     0.68258   0.26518   0.68931   0.00000  Uiso   1.00
H19    H     0.63032   0.27940   0.66026   0.00000  Uiso   1.00
C20    C     0.72125   0.27925   0.69992   0.00000  Uiso   1.00
C21    C     0.66356   0.22516   0.69732   0.00000  Uiso   1.00
O22    O     0.74665   0.25383   0.71784   0.00000  Uiso   1.00
N23    N     0.67364   0.20347   0.72257   0.00000  Uiso   1.00
H24    H     0.63803   0.21545   0.68258   0.00000  Uiso   1.00
C25    C     0.65453   0.16530   0.73198   0.00000  Uiso   1.00
H26    H     0.66576   0.14093   0.71552   0.00000  Uiso   1.00
H27    H     0.62113   0.16772   0.72933   0.00000  Uiso   1.00
C28    C     0.16306   0.72464   0.80266   0.00000  Uiso   1.00
Si29   Si    0.47322   0.52744   0.52573   0.00000  Uiso   1.00
O30    O     0.44907   0.50063   0.50000   0.00000  Uiso   1.00
N31    N     0.17316   0.70292   0.77744   0.00000  Uiso   1.00
C32    C     0.15406   0.66475   0.76803   0.00000  Uiso   1.00
H33    H     0.13748   0.71504   0.81740   0.00000  Uiso   1.00
H34    H     0.12067   0.66711   0.77075   0.00000  Uiso   1.00
H35    H     0.16539   0.64037   0.78444   0.00000  Uiso   1.00
H      H     0.70539   0.39291   0.64340   0.00000  Uiso   1.00
Li36   Ag    0.71952   0.21952   0.75000   0.00000  Uiso   1.00
O37    O     0.50000   0.50000   0.54626   0.00000  Uiso   1.00
Li38   Ag    0.21903   0.71903   0.75000   0.00000  Uiso   1.00
loop_
_geom_bond_atom_site_label_1
_geom_bond_atom_site_label_2
_geom_bond_distance
_geom_bond_site_symmetry_2
_ccdc_geom_bond_type
C1     C2      1.388   .     D
C1     C3      1.388   .     S
C1     Si29    1.837   2_665 S
C2     C4      1.389   .     S
C2     H5      1.082   .     S
C3     C6      1.388   .     D
C3     H7      1.082   .     S
C4     C8      1.390   .     D
C4     H9      1.082   .     S
C6     C8      1.389   .     S
C6     H10     1.082   .     S
C8     C11     1.437   4_656 S
C11    C12     1.206   .     T
C11    C8      1.437   3_566 S
C12    C13     1.437   3_566 S
C13    C14     1.386   .     D
C13    C15     1.383   .     S
C13    C12     1.437   4_656 S
C14    C16     1.389   .     S
C14    H17     1.392   .     S
C15    C18     1.390   .     D
C15    H19     1.082   .     S
C16    C20     1.425   .     D
C16    C28     1.496   8_656 S
H17    H       1.012   .     S
C18    C20     1.425   .     S
C18    C21     1.498   .     S
C20    O22     1.392   .     S
C21    N23     1.295   .     D
C21    H24     1.082   .     S
O22    Li36    1.947   .     S
O22    Li38    1.948   2_665 S
N23    Li36    1.954   .     S
N23    C25     1.460   .     S
C25    H26     1.110   .     S
C25    H27     1.110   .     S
C25    C25     1.549   7_546 S
C28    N31     1.295   .     D
C28    H33     1.082   .     S
C28    C16     1.496   8_566 S
Si29   O30     1.585   .     S
Si29   O37     1.516   .     S
Si29   C1      1.837   2_665 S
Si29   O30     1.585   3_566 S
Si29   Si29    2.531   2_665 S
O30    Si29    1.585   4_656 S
N31    C32     1.460   .     S
N31    Li38    1.954   .     S
C32    H34     1.110   .     S
C32    H35     1.110   .     S
C32    C32     1.549   7_456 S
Li36   O22     1.947   7_546 S
Li36   N23     1.954   7_546 S
O37    Si29    1.516   2_665 S
Li38   N31     1.954   7_456 S
Li38   O22     1.948   2_665 S
Li38   O22     1.948   8_566 S
