data_dAgAg03-f
_audit_creation_date              2025-09-02
_audit_creation_method            'Materials Studio'
_symmetry_space_group_name_H-M    'P-4N2'
_symmetry_Int_Tables_number       118
_symmetry_cell_setting            tetragonal
loop_
_symmetry_equiv_pos_as_xyz
  x,y,z
  -x,-y,z
  y,-x,-z
  -y,x,-z
  x+1/2,-y+1/2,z+1/2
  -x+1/2,y+1/2,z+1/2
  y+1/2,x+1/2,-z+1/2
  -y+1/2,-x+1/2,-z+1/2
_cell_length_a                    23.5506
_cell_length_b                    23.5506
_cell_length_c                    28.7593
_cell_angle_alpha                 90.0000
_cell_angle_beta                  90.0000
_cell_angle_gamma                 90.0000
loop_
_atom_site_label
_atom_site_type_symbol
_atom_site_fract_x
_atom_site_fract_y
_atom_site_fract_z
_atom_site_U_iso_or_equiv
_atom_site_adp_type
_atom_site_occupancy
C1     C     0.53161   0.59787   0.52943   0.00000  Uiso   1.00
C2     C     0.56337   0.63175   0.55910   0.00000  Uiso   1.00
H3     H     0.50440   0.61832   0.50430   0.00000  Uiso   1.00
H4     H     0.56127   0.67735   0.55522   0.00000  Uiso   1.00
C5     C     0.37583   0.68565   0.36103   0.00000  Uiso   1.00
C6     C     0.34347   0.72050   0.33237   0.00000  Uiso   1.00
H7     H     0.41731   0.70004   0.37203   0.00000  Uiso   1.00
C8     C     0.21127   0.62270   0.32313   0.00000  Uiso   1.00
N9     N     0.18046   0.63819   0.28799   0.00000  Uiso   1.00
H10    H     0.19722   0.58677   0.34357   0.00000  Uiso   1.00
C11    C     0.12652   0.61205   0.27541   0.00000  Uiso   1.00
H12    H     0.09275   0.62904   0.29846   0.00000  Uiso   1.00
H13    H     0.12906   0.56527   0.27976   0.00000  Uiso   1.00
C14    C     0.93098   0.01472   0.06646   0.00000  Uiso   1.00
C15    C     0.89945   0.04863   0.09627   0.00000  Uiso   1.00
H16    H     0.92877   0.96903   0.07001   0.00000  Uiso   1.00
H17    H     0.87347   0.02870   0.12261   0.00000  Uiso   1.00
C18    C     0.80305   0.88565   0.86214   0.00000  Uiso   1.00
C19    C     0.76823   0.85220   0.83418   0.00000  Uiso   1.00
H20    F     0.78481   0.93801   0.87495   0.00000  Uiso   1.00
C21    C     0.87046   0.72808   0.81916   0.00000  Uiso   1.00
N22    N     0.85247   0.69427   0.78670   0.00000  Uiso   1.00
H23    H     0.91116   0.71863   0.83486   0.00000  Uiso   1.00
C24    C     0.88644   0.64772   0.76812   0.00000  Uiso   1.00
H25    H     0.90010   0.61927   0.79679   0.00000  Uiso   1.00
H26    H     0.92471   0.66563   0.75101   0.00000  Uiso   1.00
C27    C     0.53488   0.53870   0.53191   0.00000  Uiso   1.00
C28    C     0.59828   0.60756   0.59277   0.00000  Uiso   1.00
C29    C     0.35636   0.63319   0.37623   0.00000  Uiso   1.00
C30    C     0.28801   0.70200   0.31968   0.00000  Uiso   1.00
O31    O     0.25060   0.73910   0.29816   0.00000  Uiso   1.00
C32    C     0.50000   0.50000   0.50000   0.00000  Uiso   1.00
Zn33   Ag    0.20384   0.70384   0.25000   0.00000  Uiso   1.00
Zn34   Ag    0.78528   0.71472   0.75000   0.00000  Uiso   1.00
loop_
_geom_bond_atom_site_label_1
_geom_bond_atom_site_label_2
_geom_bond_distance
_geom_bond_site_symmetry_2
_ccdc_geom_bond_type
C1     C27     1.397   .     A
C1     C2      1.387   .     A
C1     H3      1.079   .     S
C2     C28     1.392   .     A
C2     H4      1.081   .     S
C5     C29     1.389   .     A
C5     C6      1.390   .     A
C5     H7      1.081   .     S
C6     C30     1.424   .     A
C6     C21     1.419   5_464 A
C8     N9      1.297   .     D
C8     H10     1.082   .     S
C8     C19     1.500   5_464 S
N9     Zn33    1.972   .     S
N9     C11     1.457   .     S
C11    H12     1.110   .     S
C11    H13     1.110   .     S
C11    C11     1.539   7_455 S
C14    C15     1.387   .     A
C14    C27     1.398   6_644 A
C14    H16     1.082   1_545 S
C15    H17     1.081   .     S
C15    C28     1.392   6_644 A
H16    C14     1.082   1_565 S
C18    C19     1.392   .     A
C18    H20     1.357   .     S
C18    C29     1.392   5_565 A
C19    C8      1.500   5_565 S
C19    C30     1.421   5_565 A
C21    N22     1.298   .     D
C21    H23     1.083   .     S
C21    C6      1.419   5_565 A
N22    Zn34    1.962   .     S
N22    C24     1.459   .     S
C24    H25     1.110   .     S
C24    H26     1.110   .     S
C24    C24     1.543   8_666 S
C27    C32     1.532   .     S
C27    C14     1.398   6_655 A
C28    C15     1.392   6_655 A
C28    C29     1.481   3_566 S
C29    C18     1.392   5_464 A
C29    C28     1.481   4_656 S
C30    O31     1.387   .     S
C30    C19     1.421   5_464 A
O31    Zn33    1.955   .     S
O31    Zn34    1.941   4_656 S
C32    C27     1.532   2_665 S
C32    C27     1.532   3_566 S
C32    C27     1.532   4_656 S
Zn33   N9      1.972   7_455 S
Zn33   O31     1.955   7_455 S
Zn33   Zn34    2.712   4_656 S
Zn34   N22     1.962   8_666 S
Zn34   O31     1.941   3_566 S
Zn34   O31     1.941   5_565 S
Zn34   Zn33    2.712   3_566 S
