data_dAgAg01
_audit_creation_date              2025-09-02
_audit_creation_method            'Materials Studio'
_symmetry_space_group_name_H-M    'P-4N2'
_symmetry_Int_Tables_number       118
_symmetry_cell_setting            tetragonal
loop_
_symmetry_equiv_pos_as_xyz
  x,y,z
  -x,-y,z
  y,-x,-z
  -y,x,-z
  x+1/2,-y+1/2,z+1/2
  -x+1/2,y+1/2,z+1/2
  y+1/2,x+1/2,-z+1/2
  -y+1/2,-x+1/2,-z+1/2
_cell_length_a                    30.3567
_cell_length_b                    30.3567
_cell_length_c                    33.0425
_cell_angle_alpha                 90.0000
_cell_angle_beta                  90.0000
_cell_angle_gamma                 90.0000
loop_
_atom_site_label
_atom_site_type_symbol
_atom_site_fract_x
_atom_site_fract_y
_atom_site_fract_z
_atom_site_U_iso_or_equiv
_atom_site_adp_type
_atom_site_occupancy
C1     C     0.50800   0.55640   0.55585   0.00000  Uiso   1.00
C2     C     0.53269   0.58100   0.58300   0.00000  Uiso   1.00
H3     H     0.47246   0.55901   0.55637   0.00000  Uiso   1.00
H4     H     0.51631   0.60270   0.60417   0.00000  Uiso   1.00
C5     C     0.36776   0.68964   0.32101   0.00000  Uiso   1.00
C6     C     0.34453   0.71451   0.29285   0.00000  Uiso   1.00
H7     H     0.39907   0.70147   0.33225   0.00000  Uiso   1.00
C8     C     0.24546   0.63460   0.27999   0.00000  Uiso   1.00
N9     N     0.21237   0.65510   0.26398   0.00000  Uiso   1.00
H10    H     0.24167   0.60008   0.28739   0.00000  Uiso   1.00
C11    C     0.17049   0.63472   0.25299   0.00000  Uiso   1.00
H12    H     0.15998   0.61144   0.27704   0.00000  Uiso   1.00
H13    H     0.17483   0.61631   0.22425   0.00000  Uiso   1.00
C14    C     0.92564   0.02450   0.02924   0.00000  Uiso   1.00
C15    C     0.90101   0.04914   0.05647   0.00000  Uiso   1.00
H16    H     0.90865   1.00180   0.00950   0.00000  Uiso   1.00
H17    H     0.86553   0.04583   0.05701   0.00000  Uiso   1.00
C18    C     0.81198   0.86620   0.82090   0.00000  Uiso   1.00
C19    C     0.78713   0.84293   0.79277   0.00000  Uiso   1.00
H20    H     0.80016   0.89757   0.83204   0.00000  Uiso   1.00
C21    C     0.86701   0.74382   0.78010   0.00000  Uiso   1.00
N22    N     0.84653   0.71071   0.76409   0.00000  Uiso   1.00
H23    H     0.90153   0.74004   0.78751   0.00000  Uiso   1.00
C24    C     0.86692   0.66883   0.75312   0.00000  Uiso   1.00
H25    H     0.89005   0.65826   0.77726   0.00000  Uiso   1.00
H26    H     0.88552   0.67323   0.72448   0.00000  Uiso   1.00
C27    C     0.52845   0.52834   0.52801   0.00000  Uiso   1.00
C28    C     0.57821   0.57747   0.58330   0.00000  Uiso   1.00
C29    C     0.60244   0.39635   0.38811   0.00000  Uiso   1.00
C30    C     0.62336   0.37518   0.36394   0.00000  Uiso   1.00
C31    C     0.35171   0.64985   0.33500   0.00000  Uiso   1.00
C32    C     0.30344   0.69819   0.27828   0.00000  Uiso   1.00
O33    O     0.28147   0.72018   0.24731   0.00000  Uiso   1.00
C34    C     0.50000   0.50000   0.50000   0.00000  Uiso   1.00
Zn35   Ag    0.21743   0.71743   0.25000   0.00000  Uiso   1.00
Zn36   Ag    0.78422   0.71578   0.75000   0.00000  Uiso   1.00
loop_
_geom_bond_atom_site_label_1
_geom_bond_atom_site_label_2
_geom_bond_distance
_geom_bond_site_symmetry_2
_ccdc_geom_bond_type
C1     C27     1.399   .     A
C1     C2      1.387   .     A
C1     H3      1.082   .     S
C2     C28     1.386   .     A
C2     H4      1.082   .     S
C5     C31     1.382   .     A
C5     C6      1.390   .     A
C5     H7      1.082   .     S
C6     C32     1.426   .     A
C6     C21     1.498   5_464 S
C8     N9      1.295   .     D
C8     H10     1.082   .     S
C8     C19     1.498   5_464 S
N9     Zn35    1.954   .     S
N9     C11     1.460   .     S
C11    H12     1.110   .     S
C11    H13     1.110   .     S
C11    C11     1.548   7_455 S
C14    C15     1.388   .     A
C14    C27     1.399   6_644 A
C14    H16     1.080   1_545 S
C15    H17     1.082   .     S
C15    C28     1.387   6_644 A
H16    C14     1.080   1_565 S
C18    C19     1.390   .     A
C18    H20     1.082   .     S
C18    C31     1.382   5_565 A
C19    C8      1.498   5_565 S
C19    C32     1.426   5_565 A
C21    N22     1.295   .     D
C21    H23     1.082   .     S
C21    C6      1.498   5_565 S
N22    Zn36    1.954   .     S
N22    C24     1.460   .     S
C24    H25     1.110   .     S
C24    H26     1.110   .     S
C24    C24     1.549   8_666 S
C27    C34     1.531   .     S
C27    C14     1.399   6_655 A
C28    C15     1.387   6_655 A
C28    C29     1.437   4_656 S
C29    C30     1.206   .     T
C29    C28     1.437   3_566 S
C30    C31     1.437   2_665 S
C31    C18     1.382   5_464 A
C31    C30     1.437   2_665 S
C32    O33     1.392   .     S
C32    C19     1.426   5_464 A
O33    Zn35    1.948   .     S
O33    Zn36    1.948   4_656 S
C34    C27     1.531   2_665 S
C34    C27     1.531   3_566 S
C34    C27     1.531   4_656 S
Zn35   N9      1.954   7_455 S
Zn35   O33     1.948   7_455 S
Zn36   N22     1.954   8_666 S
Zn36   O33     1.948   3_566 S
Zn36   O33     1.948   5_565 S
