data_dAgAg03-nh2
_audit_creation_date              2025-09-02
_audit_creation_method            'Materials Studio'
_symmetry_space_group_name_H-M    'P-4N2'
_symmetry_Int_Tables_number       118
_symmetry_cell_setting            tetragonal
loop_
_symmetry_equiv_pos_as_xyz
  x,y,z
  -x,-y,z
  y,-x,-z
  -y,x,-z
  x+1/2,-y+1/2,z+1/2
  -x+1/2,y+1/2,z+1/2
  y+1/2,x+1/2,-z+1/2
  -y+1/2,-x+1/2,-z+1/2
_cell_length_a                    24.2090
_cell_length_b                    24.2090
_cell_length_c                    27.6592
_cell_angle_alpha                 90.0000
_cell_angle_beta                  90.0000
_cell_angle_gamma                 90.0000
loop_
_atom_site_label
_atom_site_type_symbol
_atom_site_fract_x
_atom_site_fract_y
_atom_site_fract_z
_atom_site_U_iso_or_equiv
_atom_site_adp_type
_atom_site_occupancy
C1     C     0.53480   0.59559   0.52575   0.00000  Uiso   1.00
C2     C     0.56557   0.62946   0.55588   0.00000  Uiso   1.00
H3     H     0.51206   0.61446   0.49656   0.00000  Uiso   1.00
H4     H     0.56708   0.67336   0.54869   0.00000  Uiso   1.00
C5     C     0.37340   0.68063   0.36054   0.00000  Uiso   1.00
C6     C     0.34078   0.71519   0.33246   0.00000  Uiso   1.00
H7     H     0.41354   0.69492   0.37237   0.00000  Uiso   1.00
C8     C     0.21198   0.62039   0.32343   0.00000  Uiso   1.00
N9     N     0.18083   0.63662   0.28810   0.00000  Uiso   1.00
H10    H     0.19753   0.58636   0.34528   0.00000  Uiso   1.00
C11    C     0.12759   0.61216   0.27612   0.00000  Uiso   1.00
H12    H     0.09581   0.62870   0.30115   0.00000  Uiso   1.00
H13    H     0.12957   0.56654   0.27985   0.00000  Uiso   1.00
C14    C     0.93684   0.01663   0.07187   0.00000  Uiso   1.00
C15    C     0.90659   0.05069   0.10236   0.00000  Uiso   1.00
H16    H     0.93741   0.97261   0.07857   0.00000  Uiso   1.00
H17    H     0.88418   0.03274   0.13232   0.00000  Uiso   1.00
C18    C     0.80534   0.89173   0.85777   0.00000  Uiso   1.00
C19    C     0.76874   0.85694   0.83294   0.00000  Uiso   1.00
N20    N     0.79202   0.94884   0.86460   0.00000  Uiso   1.00
C21    C     0.86599   0.73392   0.81978   0.00000  Uiso   1.00
N22    N     0.84741   0.70013   0.78718   0.00000  Uiso   1.00
H23    H     0.90591   0.72490   0.83556   0.00000  Uiso   1.00
C24    C     0.87978   0.65405   0.76842   0.00000  Uiso   1.00
H25    H     0.89305   0.62696   0.79865   0.00000  Uiso   1.00
H26    H     0.91704   0.67066   0.75009   0.00000  Uiso   1.00
C27    C     0.53364   0.53844   0.53279   0.00000  Uiso   1.00
C28    C     0.59458   0.60747   0.59479   0.00000  Uiso   1.00
C29    C     0.35632   0.62811   0.37374   0.00000  Uiso   1.00
C30    C     0.28669   0.69709   0.31999   0.00000  Uiso   1.00
O31    O     0.24929   0.73399   0.29994   0.00000  Uiso   1.00
H32    H     0.75647   0.96620   0.84980   0.00000  Uiso   1.00
H33    H     0.82117   0.97607   0.87878   0.00000  Uiso   1.00
C34    C     0.50000   0.50000   0.50000   0.00000  Uiso   1.00
Ag35   Ag    0.20196   0.70196   0.25000   0.00000  Uiso   1.00
Ag36   Ag    0.78095   0.71905   0.75000   0.00000  Uiso   1.00
loop_
_geom_bond_atom_site_label_1
_geom_bond_atom_site_label_2
_geom_bond_distance
_geom_bond_site_symmetry_2
_ccdc_geom_bond_type
C1     C27     1.398   .     A
C1     C2      1.386   .     A
C1     H3      1.079   .     S
C2     C28     1.391   .     A
C2     H4      1.082   .     S
C5     C29     1.386   .     A
C5     C6      1.388   .     A
C5     H7      1.082   .     S
C6     C30     1.423   .     A
C6     C21     1.419   5_464 A
C8     N9      1.296   .     D
C8     H10     1.080   .     S
C8     C19     1.503   5_464 S
N9     Ag35    1.968   .     S
N9     C11     1.457   .     S
C11    H12     1.110   .     S
C11    H13     1.110   .     S
C11    C11     1.538   7_455 S
C14    C15     1.388   .     A
C14    C27     1.399   6_644 A
C14    H16     1.082   1_545 S
C15    H17     1.082   .     S
C15    C28     1.391   6_644 A
H16    C14     1.082   1_565 S
C18    C19     1.402   .     A
C18    N20     1.432   .     S
C18    C29     1.396   5_565 A
C19    C8      1.503   5_565 S
C19    C30     1.424   5_565 A
N20    H32     1.041   .     S
N20    H33     1.042   .     S
C21    N22     1.298   .     D
C21    H23     1.083   .     S
C21    C6      1.419   5_565 A
N22    Ag36    1.964   .     S
N22    C24     1.459   .     S
C24    H25     1.110   .     S
C24    H26     1.110   .     S
C24    C24     1.543   8_666 S
C27    C34     1.534   .     S
C27    C14     1.399   6_655 A
C28    C15     1.391   6_655 A
C28    C29     1.478   3_566 S
C29    C18     1.396   5_464 A
C29    C28     1.478   4_656 S
C30    O31     1.388   .     S
C30    C19     1.424   5_464 A
O31    Ag35    1.955   .     S
O31    Ag36    1.946   4_656 S
C34    C27     1.534   2_665 S
C34    C27     1.534   3_566 S
C34    C27     1.534   4_656 S
Ag35   N9      1.968   7_455 S
Ag35   O31     1.955   7_455 S
Ag35   Ag36    2.704   4_656 S
Ag36   N22     1.964   8_666 S
Ag36   O31     1.946   3_566 S
Ag36   O31     1.946   5_565 S
Ag36   Ag35    2.704   3_566 S
