data_dAgAg01-oh
_audit_creation_date              2025-09-02
_audit_creation_method            'Materials Studio'
_symmetry_space_group_name_H-M    'P-4N2'
_symmetry_Int_Tables_number       118
_symmetry_cell_setting            tetragonal
loop_
_symmetry_equiv_pos_as_xyz
  x,y,z
  -x,-y,z
  y,-x,-z
  -y,x,-z
  x+1/2,-y+1/2,z+1/2
  -x+1/2,y+1/2,z+1/2
  y+1/2,x+1/2,-z+1/2
  -y+1/2,-x+1/2,-z+1/2
_cell_length_a                    30.2765
_cell_length_b                    30.2765
_cell_length_c                    33.0517
_cell_angle_alpha                 90.0000
_cell_angle_beta                  90.0000
_cell_angle_gamma                 90.0000
loop_
_atom_site_label
_atom_site_type_symbol
_atom_site_fract_x
_atom_site_fract_y
_atom_site_fract_z
_atom_site_U_iso_or_equiv
_atom_site_adp_type
_atom_site_occupancy
C1     C     0.50757   0.55673   0.55572   0.00000  Uiso   1.00
C2     C     0.53209   0.58125   0.58316   0.00000  Uiso   1.00
H3     H     0.47193   0.55937   0.55597   0.00000  Uiso   1.00
H4     H     0.51548   0.60292   0.60427   0.00000  Uiso   1.00
C5     C     0.36863   0.68963   0.32059   0.00000  Uiso   1.00
C6     C     0.34600   0.71441   0.29143   0.00000  Uiso   1.00
H7     O     0.40730   0.70509   0.33854   0.00000  Uiso   1.00
C8     C     0.24693   0.63414   0.27721   0.00000  Uiso   1.00
N9     N     0.21344   0.65514   0.26229   0.00000  Uiso   1.00
H10    H     0.24328   0.59931   0.28380   0.00000  Uiso   1.00
C11    C     0.17115   0.63510   0.25171   0.00000  Uiso   1.00
H12    H     0.16150   0.61056   0.27505   0.00000  Uiso   1.00
H13    H     0.17454   0.61813   0.22211   0.00000  Uiso   1.00
C14    C     0.92568   0.02466   0.02965   0.00000  Uiso   1.00
C15    C     0.90123   0.04923   0.05716   0.00000  Uiso   1.00
H16    H     0.90851   1.00186   0.01006   0.00000  Uiso   1.00
H17    H     0.86568   0.04577   0.05807   0.00000  Uiso   1.00
C18    C     0.81362   0.86738   0.81793   0.00000  Uiso   1.00
C19    C     0.78869   0.84357   0.79027   0.00000  Uiso   1.00
H20    H     0.80196   0.89918   0.82838   0.00000  Uiso   1.00
C21    C     0.86858   0.74431   0.77718   0.00000  Uiso   1.00
N22    N     0.84752   0.71064   0.76269   0.00000  Uiso   1.00
H23    H     0.90382   0.74124   0.78142   0.00000  Uiso   1.00
C24    C     0.86755   0.66854   0.75149   0.00000  Uiso   1.00
H25    H     0.89258   0.65881   0.77436   0.00000  Uiso   1.00
H26    H     0.88388   0.67220   0.72161   0.00000  Uiso   1.00
C27    C     0.52831   0.52859   0.52804   0.00000  Uiso   1.00
C28    C     0.57772   0.57757   0.58390   0.00000  Uiso   1.00
C29    C     0.60224   0.39702   0.38705   0.00000  Uiso   1.00
C30    C     0.62281   0.37594   0.36247   0.00000  Uiso   1.00
C31    C     0.35280   0.64905   0.33306   0.00000  Uiso   1.00
C32    C     0.30488   0.69798   0.27651   0.00000  Uiso   1.00
O33    O     0.28242   0.72058   0.24611   0.00000  Uiso   1.00
H      H     0.41300   0.73746   0.33350   0.00000  Uiso   1.00
C34    C     0.50000   0.50000   0.50000   0.00000  Uiso   1.00
Zn35   Ag    0.21814   0.71814   0.25000   0.00000  Uiso   1.00
Zn36   Ag    0.78473   0.71527   0.75000   0.00000  Uiso   1.00
loop_
_geom_bond_atom_site_label_1
_geom_bond_atom_site_label_2
_geom_bond_distance
_geom_bond_site_symmetry_2
_ccdc_geom_bond_type
C1     C27     1.399   .     A
C1     C2      1.387   .     A
C1     H3      1.082   .     S
C2     C28     1.386   .     A
C2     H4      1.082   .     S
C5     C31     1.382   .     A
C5     C6      1.400   .     A
C5     H7      1.393   .     S
C6     C32     1.428   .     A
C6     C21     1.500   5_464 S
H7     H       1.009   .     S
C8     N9      1.294   .     D
C8     H10     1.082   .     S
C8     C19     1.497   5_464 S
N9     Zn35    1.955   .     S
N9     C11     1.459   .     S
C11    H12     1.110   .     S
C11    H13     1.110   .     S
C11    C11     1.548   7_455 S
C14    C15     1.389   .     A
C14    C27     1.399   6_644 A
C14    H16     1.080   1_545 S
C15    H17     1.082   .     S
C15    C28     1.387   6_644 A
H16    C14     1.080   1_565 S
C18    C19     1.387   .     A
C18    H20     1.082   .     S
C18    C31     1.380   5_565 A
C19    C8      1.497   5_565 S
C19    C32     1.425   5_565 A
C21    N22     1.294   .     D
C21    H23     1.080   .     S
C21    C6      1.500   5_565 S
N22    Zn36    1.952   .     S
N22    C24     1.459   .     S
C24    H25     1.110   .     S
C24    H26     1.110   .     S
C24    C24     1.548   8_666 S
C27    C34     1.531   .     S
C27    C14     1.399   6_655 A
C28    C15     1.387   6_655 A
C28    C29     1.437   4_656 S
C29    C30     1.206   .     T
C29    C28     1.437   3_566 S
C30    C31     1.436   2_665 S
C31    C18     1.380   5_464 A
C31    C30     1.436   2_665 S
C32    O33     1.393   .     S
C32    C19     1.425   5_464 A
O33    Zn35    1.952   .     S
O33    Zn36    1.948   4_656 S
C34    C27     1.531   2_665 S
C34    C27     1.531   3_566 S
C34    C27     1.531   4_656 S
Zn35   N9      1.955   7_455 S
Zn35   O33     1.952   7_455 S
Zn36   N22     1.952   8_666 S
Zn36   O33     1.948   3_566 S
Zn36   O33     1.948   5_565 S
