data_dAgAg05-f
_audit_creation_date              2025-09-02
_audit_creation_method            'Materials Studio'
_symmetry_space_group_name_H-M    'P-4N2'
_symmetry_Int_Tables_number       118
_symmetry_cell_setting            tetragonal
loop_
_symmetry_equiv_pos_as_xyz
  x,y,z
  -x,-y,z
  y,-x,-z
  -y,x,-z
  x+1/2,-y+1/2,z+1/2
  -x+1/2,y+1/2,z+1/2
  y+1/2,x+1/2,-z+1/2
  -y+1/2,-x+1/2,-z+1/2
_cell_length_a                    22.2135
_cell_length_b                    22.2135
_cell_length_c                    19.6260
_cell_angle_alpha                 90.0000
_cell_angle_beta                  90.0000
_cell_angle_gamma                 90.0000
loop_
_atom_site_label
_atom_site_type_symbol
_atom_site_fract_x
_atom_site_fract_y
_atom_site_fract_z
_atom_site_U_iso_or_equiv
_atom_site_adp_type
_atom_site_occupancy
C1     C     0.58330   0.66273   0.64413   0.00000  Uiso   1.00
C2     C     0.61715   0.69903   0.68754   0.00000  Uiso   1.00
H3     F     0.52860   0.68169   0.62207   0.00000  Uiso   1.00
C4     C     0.75350   0.59086   0.70832   0.00000  Uiso   1.00
N5     N     0.79981   0.62004   0.73099   0.00000  Uiso   1.00
H6     H     0.75820   0.54316   0.69845   0.00000  Uiso   1.00
C7     C     0.85781   0.59299   0.74781   0.00000  Uiso   1.00
H8     H     0.87038   0.55932   0.70850   0.00000  Uiso   1.00
H9     H     0.06596   0.64273   0.29687   0.00000  Uiso   1.00
C10    C     0.84032   0.08645   0.14502   0.00000  Uiso   1.00
C11    C     0.80435   0.12054   0.18818   0.00000  Uiso   1.00
H12    H     0.82500   0.04265   0.12824   0.00000  Uiso   1.00
C13    C     0.91248   0.25708   0.20747   0.00000  Uiso   1.00
N14    N     0.88336   0.30336   0.23033   0.00000  Uiso   1.00
H15    H     0.96013   0.26192   0.19747   0.00000  Uiso   1.00
C16    C     0.91049   0.36131   0.24721   0.00000  Uiso   1.00
H17    H     0.94364   0.37418   0.20746   0.00000  Uiso   1.00
H18    H     0.85406   0.57011   0.79791   0.00000  Uiso   1.00
C19    C     0.46258   0.46143   0.54322   0.00000  Uiso   1.00
C20    C     0.43199   0.42996   0.57940   0.00000  Uiso   1.00
C21    C     0.60431   0.60713   0.62312   0.00000  Uiso   1.00
C22    C     0.67437   0.67786   0.71025   0.00000  Uiso   1.00
O23    O     0.70654   0.71016   0.75892   0.00000  Uiso   1.00
C24    C     0.50000   0.50000   0.50000   0.00000  Uiso   1.00
Zn25   Ag    0.79381   0.70619   0.75000   0.00000  Uiso   1.00
Zn26   Ag    0.79738   0.29738   0.25000   0.00000  Uiso   1.00
loop_
_geom_bond_atom_site_label_1
_geom_bond_atom_site_label_2
_geom_bond_distance
_geom_bond_site_symmetry_2
_ccdc_geom_bond_type
C1     C21     1.383   .     A
C1     C2      1.393   .     A
C1     H3      1.357   .     S
C2     C22     1.427   .     A
C2     C13     1.499   6_655 S
C4     N5      1.295   .     D
C4     H6      1.082   .     S
C4     C11     1.497   6_655 S
N5     Zn25    1.954   .     S
N5     C7      1.459   .     S
C7     H8      1.110   .     S
C7     H18     1.110   .     S
C7     C7      1.548   8_666 S
H9     C16     1.110   2_665 S
C10    C11     1.389   .     A
C10    H12     1.082   .     S
C10    C21     1.381   6_644 A
C11    C4      1.497   6_644 S
C11    C22     1.426   6_644 A
C13    N14     1.295   .     D
C13    H15     1.082   .     S
C13    C2      1.499   6_644 S
N14    Zn26    1.953   .     S
N14    C16     1.460   .     S
C16    H17     1.110   .     S
C16    H9      1.110   2_665 S
C16    C16     1.549   7_545 S
C19    C24     1.464   .     S
C19    C20     1.206   .     T
C20    C21     1.437   2_665 S
C21    C10     1.381   6_655 A
C21    C20     1.437   2_665 S
C22    O23     1.392   .     S
C22    C11     1.426   6_655 A
O23    Zn25    1.948   .     S
O23    Zn26    1.947   4_656 S
C24    C19     1.464   2_665 S
C24    C19     1.464   3_566 S
C24    C19     1.464   4_656 S
Zn25   N5      1.954   8_666 S
Zn25   O23     1.948   8_666 S
Zn26   N14     1.953   7_545 S
Zn26   O23     1.947   3_566 S
Zn26   O23     1.947   6_644 S
