data_dAgAg03-ch3
_audit_creation_date              2025-09-02
_audit_creation_method            'Materials Studio'
_symmetry_space_group_name_H-M    'P-4N2'
_symmetry_Int_Tables_number       118
_symmetry_cell_setting            tetragonal
loop_
_symmetry_equiv_pos_as_xyz
  x,y,z
  -x,-y,z
  y,-x,-z
  -y,x,-z
  x+1/2,-y+1/2,z+1/2
  -x+1/2,y+1/2,z+1/2
  y+1/2,x+1/2,-z+1/2
  -y+1/2,-x+1/2,-z+1/2
_cell_length_a                    24.1881
_cell_length_b                    24.1881
_cell_length_c                    27.7012
_cell_angle_alpha                 90.0000
_cell_angle_beta                  90.0000
_cell_angle_gamma                 90.0000
loop_
_atom_site_label
_atom_site_type_symbol
_atom_site_fract_x
_atom_site_fract_y
_atom_site_fract_z
_atom_site_U_iso_or_equiv
_atom_site_adp_type
_atom_site_occupancy
C1     C     0.53736   0.59570   0.52249   0.00000  Uiso   1.00
C2     C     0.56757   0.63045   0.55229   0.00000  Uiso   1.00
H3     H     0.51735   0.61334   0.49129   0.00000  Uiso   1.00
H4     H     0.57119   0.67376   0.54309   0.00000  Uiso   1.00
C5     C     0.37057   0.67802   0.36055   0.00000  Uiso   1.00
C6     C     0.33791   0.71254   0.33247   0.00000  Uiso   1.00
H7     H     0.41108   0.69206   0.37171   0.00000  Uiso   1.00
C8     C     0.20882   0.61770   0.32368   0.00000  Uiso   1.00
N9     N     0.17777   0.63408   0.28835   0.00000  Uiso   1.00
H10    H     0.19492   0.58265   0.34459   0.00000  Uiso   1.00
C11    C     0.12469   0.60929   0.27608   0.00000  Uiso   1.00
H12    H     0.09266   0.62557   0.30100   0.00000  Uiso   1.00
H13    H     0.12695   0.56363   0.27973   0.00000  Uiso   1.00
C14    C     0.93976   0.01884   0.07342   0.00000  Uiso   1.00
C15    C     0.91019   0.05382   0.10358   0.00000  Uiso   1.00
H16    H     0.94203   0.97528   0.08205   0.00000  Uiso   1.00
H17    H     0.89005   0.03707   0.13523   0.00000  Uiso   1.00
C18    C     0.80124   0.89347   0.86012   0.00000  Uiso   1.00
C19    C     0.76529   0.85912   0.83405   0.00000  Uiso   1.00
C20    C     0.78472   0.95230   0.86999   0.00000  Uiso   1.00
C21    C     0.86339   0.73675   0.81953   0.00000  Uiso   1.00
N22    N     0.84478   0.70287   0.78704   0.00000  Uiso   1.00
H23    H     0.90345   0.72786   0.83513   0.00000  Uiso   1.00
C24    C     0.87725   0.65687   0.76819   0.00000  Uiso   1.00
H25    H     0.89100   0.62993   0.79833   0.00000  Uiso   1.00
H26    H     0.91424   0.67364   0.74952   0.00000  Uiso   1.00
C27    C     0.53330   0.53919   0.53240   0.00000  Uiso   1.00
C28    C     0.59319   0.61007   0.59358   0.00000  Uiso   1.00
C29    C     0.35303   0.62600   0.37493   0.00000  Uiso   1.00
C30    C     0.28364   0.69458   0.32029   0.00000  Uiso   1.00
O31    O     0.24637   0.73142   0.29989   0.00000  Uiso   1.00
H32    H     0.75150   0.95340   0.89759   0.00000  Uiso   1.00
H33    H     0.76997   0.97186   0.83612   0.00000  Uiso   1.00
H34    H     0.82041   0.97686   0.88293   0.00000  Uiso   1.00
C35    C     0.50000   0.50000   0.50000   0.00000  Uiso   1.00
Ag36   Ag    0.19918   0.69918   0.25000   0.00000  Uiso   1.00
Ag37   Ag    0.77823   0.72177   0.75000   0.00000  Uiso   1.00
loop_
_geom_bond_atom_site_label_1
_geom_bond_atom_site_label_2
_geom_bond_distance
_geom_bond_site_symmetry_2
_ccdc_geom_bond_type
C1     C27     1.398   .     A
C1     C2      1.387   .     A
C1     H3      1.079   .     S
C2     C28     1.391   .     A
C2     H4      1.082   .     S
C5     C29     1.386   .     A
C5     C6      1.388   .     A
C5     H7      1.082   .     S
C6     C30     1.423   .     A
C6     C21     1.419   5_464 A
C8     N9      1.296   .     D
C8     H10     1.081   .     S
C8     C19     1.504   5_464 S
N9     Ag36    1.969   .     S
N9     C11     1.457   .     S
C11    H12     1.110   .     S
C11    H13     1.110   .     S
C11    C11     1.538   7_455 S
C14    C15     1.388   .     A
C14    C27     1.399   6_644 A
C14    H16     1.082   1_545 S
C15    H17     1.082   .     S
C15    C28     1.391   6_644 A
H16    C14     1.082   1_565 S
C18    C19     1.403   .     A
C18    C20     1.503   .     S
C18    C29     1.400   5_565 A
C19    C8      1.504   5_565 S
C19    C30     1.425   5_565 A
C20    H32     1.110   .     S
C20    H33     1.110   .     S
C20    H34     1.108   .     S
C21    N22     1.298   .     D
C21    H23     1.083   .     S
C21    C6      1.419   5_565 A
N22    Ag37    1.963   .     S
N22    C24     1.459   .     S
C24    H25     1.110   .     S
C24    H26     1.110   .     S
C24    C24     1.542   8_666 S
C27    C35     1.534   .     S
C27    C14     1.399   6_655 A
C28    C15     1.391   6_655 A
C28    C29     1.479   3_566 S
C29    C18     1.400   5_464 A
C29    C28     1.479   4_656 S
C30    O31     1.388   .     S
C30    C19     1.425   5_464 A
O31    Ag36    1.955   .     S
O31    Ag37    1.946   4_656 S
C35    C27     1.534   2_665 S
C35    C27     1.534   3_566 S
C35    C27     1.534   4_656 S
Ag36   N9      1.969   7_455 S
Ag36   O31     1.955   7_455 S
Ag36   Ag37    2.704   4_656 S
Ag37   N22     1.963   8_666 S
Ag37   O31     1.946   3_566 S
Ag37   O31     1.946   5_565 S
Ag37   Ag36    2.704   3_566 S
