data_dAgAg10-ch3
_audit_creation_date              2025-09-02
_audit_creation_method            'Materials Studio'
_symmetry_space_group_name_H-M    'P-4N2'
_symmetry_Int_Tables_number       118
_symmetry_cell_setting            tetragonal
loop_
_symmetry_equiv_pos_as_xyz
  x,y,z
  -x,-y,z
  y,-x,-z
  -y,x,-z
  x+1/2,-y+1/2,z+1/2
  -x+1/2,y+1/2,z+1/2
  y+1/2,x+1/2,-z+1/2
  -y+1/2,-x+1/2,-z+1/2
_cell_length_a                    33.0472
_cell_length_b                    33.0472
_cell_length_c                    40.6491
_cell_angle_alpha                 90.0000
_cell_angle_beta                  90.0000
_cell_angle_gamma                 90.0000
loop_
_atom_site_label
_atom_site_type_symbol
_atom_site_fract_x
_atom_site_fract_y
_atom_site_fract_z
_atom_site_U_iso_or_equiv
_atom_site_adp_type
_atom_site_occupancy
C1     C     0.55628   0.44174   0.55466   0.00000  Uiso   1.00
C2     C     0.58279   0.46048   0.57633   0.00000  Uiso   1.00
C3     C     0.55270   0.39988   0.55455   0.00000  Uiso   1.00
C4     C     0.60589   0.43735   0.59779   0.00000  Uiso   1.00
H5     H     0.58561   0.49309   0.57635   0.00000  Uiso   1.00
C6     C     0.57578   0.37674   0.57602   0.00000  Uiso   1.00
H7     H     0.53210   0.38528   0.53763   0.00000  Uiso   1.00
C8     C     0.60246   0.39545   0.59761   0.00000  Uiso   1.00
H9     H     0.62672   0.45200   0.61452   0.00000  Uiso   1.00
H10    H     0.57311   0.34411   0.57577   0.00000  Uiso   1.00
C11    C     0.37151   0.37300   0.38065   0.00000  Uiso   1.00
C12    C     0.35158   0.35200   0.36257   0.00000  Uiso   1.00
C13    C     0.67337   0.32788   0.65878   0.00000  Uiso   1.00
C14    C     0.71102   0.34225   0.66848   0.00000  Uiso   1.00
C15    C     0.66007   0.29030   0.66896   0.00000  Uiso   1.00
C16    C     0.73612   0.31890   0.68885   0.00000  Uiso   1.00
C17    C     0.72430   0.38324   0.65687   0.00000  Uiso   1.00
C18    C     0.68341   0.26597   0.68929   0.00000  Uiso   1.00
H19    H     0.63076   0.27972   0.66077   0.00000  Uiso   1.00
C20    C     0.72206   0.28022   0.69963   0.00000  Uiso   1.00
C21    C     0.66478   0.22585   0.69721   0.00000  Uiso   1.00
O22    O     0.74748   0.25484   0.71756   0.00000  Uiso   1.00
N23    N     0.67493   0.20426   0.72246   0.00000  Uiso   1.00
H24    H     0.63935   0.21600   0.68247   0.00000  Uiso   1.00
C25    C     0.65590   0.16614   0.73190   0.00000  Uiso   1.00
H26    H     0.66757   0.14170   0.71575   0.00000  Uiso   1.00
H27    H     0.62259   0.16833   0.72887   0.00000  Uiso   1.00
C28    C     0.16306   0.72327   0.80320   0.00000  Uiso   1.00
Si29   Si    0.47351   0.52765   0.52573   0.00000  Uiso   1.00
O30    O     0.44914   0.50109   0.50000   0.00000  Uiso   1.00
N31    N     0.17306   0.70206   0.77771   0.00000  Uiso   1.00
C32    C     0.15421   0.66387   0.76821   0.00000  Uiso   1.00
H33    H     0.13821   0.71249   0.81807   0.00000  Uiso   1.00
H34    H     0.12094   0.66569   0.77167   0.00000  Uiso   1.00
H35    H     0.16644   0.63935   0.78400   0.00000  Uiso   1.00
H36    H     0.70008   0.39814   0.64242   0.00000  Uiso   1.00
H37    H     0.75139   0.38022   0.64093   0.00000  Uiso   1.00
H38    H     0.73142   0.40267   0.67837   0.00000  Uiso   1.00
Ag39   Ag    0.72059   0.22059   0.75000   0.00000  Uiso   1.00
O40    O     0.50000   0.50000   0.54625   0.00000  Uiso   1.00
Ag41   Ag    0.21842   0.71842   0.75000   0.00000  Uiso   1.00
loop_
_geom_bond_atom_site_label_1
_geom_bond_atom_site_label_2
_geom_bond_distance
_geom_bond_site_symmetry_2
_ccdc_geom_bond_type
C1     C2      1.388   .     D
C1     C3      1.388   .     S
C1     Si29    1.837   2_665 S
C2     C4      1.389   .     S
C2     H5      1.082   .     S
C3     C6      1.389   .     D
C3     H7      1.081   .     S
C4     C8      1.389   .     D
C4     H9      1.082   .     S
C6     C8      1.389   .     S
C6     H10     1.082   .     S
C8     C11     1.437   4_656 S
C11    C12     1.206   .     T
C11    C8      1.437   3_566 S
C12    C13     1.439   3_566 S
C13    C14     1.389   .     D
C13    C15     1.381   .     S
C13    C12     1.439   4_656 S
C14    C16     1.403   .     S
C14    C17     1.500   .     S
C15    C18     1.387   .     D
C15    H19     1.082   .     S
C16    C20     1.429   .     D
C16    C28     1.503   8_656 S
C17    H36     1.108   .     S
C17    H37     1.110   .     S
C17    H38     1.110   .     S
C18    C20     1.424   .     S
C18    C21     1.497   .     S
C20    O22     1.393   .     S
C21    N23     1.294   .     D
C21    H24     1.082   .     S
O22    Ag39    1.952   .     S
O22    Ag41    1.947   2_665 S
N23    Ag39    1.955   .     S
N23    C25     1.459   .     S
C25    H26     1.110   .     S
C25    H27     1.110   .     S
C25    C25     1.548   7_546 S
C28    N31     1.294   .     D
C28    H33     1.080   .     S
C28    C16     1.503   8_566 S
Si29   O30     1.585   .     S
Si29   O40     1.516   .     S
Si29   C1      1.837   2_665 S
Si29   O30     1.585   3_566 S
Si29   Si29    2.531   2_665 S
O30    Si29    1.585   4_656 S
N31    C32     1.459   .     S
N31    Ag41    1.951   .     S
C32    H34     1.110   .     S
C32    H35     1.110   .     S
C32    C32     1.548   7_456 S
Ag39   O22     1.952   7_546 S
Ag39   N23     1.955   7_546 S
O40    Si29    1.516   2_665 S
Ag41   N31     1.951   7_456 S
Ag41   O22     1.947   2_665 S
Ag41   O22     1.947   8_566 S
