data_dAgAg01-f
_audit_creation_date              2025-09-02
_audit_creation_method            'Materials Studio'
_symmetry_space_group_name_H-M    'P-4N2'
_symmetry_Int_Tables_number       118
_symmetry_cell_setting            tetragonal
loop_
_symmetry_equiv_pos_as_xyz
  x,y,z
  -x,-y,z
  y,-x,-z
  -y,x,-z
  x+1/2,-y+1/2,z+1/2
  -x+1/2,y+1/2,z+1/2
  y+1/2,x+1/2,-z+1/2
  -y+1/2,-x+1/2,-z+1/2
_cell_length_a                    30.3580
_cell_length_b                    30.3580
_cell_length_c                    33.0581
_cell_angle_alpha                 90.0000
_cell_angle_beta                  90.0000
_cell_angle_gamma                 90.0000
loop_
_atom_site_label
_atom_site_type_symbol
_atom_site_fract_x
_atom_site_fract_y
_atom_site_fract_z
_atom_site_U_iso_or_equiv
_atom_site_adp_type
_atom_site_occupancy
C1     C     0.50783   0.55617   0.55606   0.00000  Uiso   1.00
C2     C     0.53247   0.58077   0.58325   0.00000  Uiso   1.00
H3     H     0.47228   0.55849   0.55675   0.00000  Uiso   1.00
H4     H     0.51602   0.60216   0.60463   0.00000  Uiso   1.00
C5     C     0.36824   0.68969   0.32092   0.00000  Uiso   1.00
C6     C     0.34502   0.71463   0.29268   0.00000  Uiso   1.00
H7     F     0.40746   0.70443   0.33523   0.00000  Uiso   1.00
C8     C     0.24588   0.63483   0.27968   0.00000  Uiso   1.00
N9     N     0.21275   0.65539   0.26380   0.00000  Uiso   1.00
H10    H     0.24211   0.60028   0.28695   0.00000  Uiso   1.00
C11    C     0.17084   0.63505   0.25289   0.00000  Uiso   1.00
H12    H     0.16041   0.61170   0.27690   0.00000  Uiso   1.00
H13    H     0.17508   0.61673   0.22410   0.00000  Uiso   1.00
C14    C     0.92569   0.02497   0.02900   0.00000  Uiso   1.00
C15    C     0.90113   0.04961   0.05626   0.00000  Uiso   1.00
H16    H     0.90863   1.00255   0.00907   0.00000  Uiso   1.00
H17    H     0.86563   0.04656   0.05666   0.00000  Uiso   1.00
C18    C     0.81230   0.86608   0.82063   0.00000  Uiso   1.00
C19    C     0.78753   0.84275   0.79253   0.00000  Uiso   1.00
H20    H     0.80041   0.89744   0.83173   0.00000  Uiso   1.00
C21    C     0.86740   0.74367   0.77975   0.00000  Uiso   1.00
N22    N     0.84681   0.71055   0.76389   0.00000  Uiso   1.00
H23    H     0.90196   0.73982   0.78691   0.00000  Uiso   1.00
C24    C     0.86714   0.66863   0.75299   0.00000  Uiso   1.00
H25    H     0.89035   0.65814   0.77709   0.00000  Uiso   1.00
H26    H     0.88563   0.67290   0.72429   0.00000  Uiso   1.00
C27    C     0.52836   0.52844   0.52800   0.00000  Uiso   1.00
C28    C     0.57801   0.57759   0.58333   0.00000  Uiso   1.00
C29    C     0.60248   0.39655   0.38801   0.00000  Uiso   1.00
C30    C     0.62326   0.37530   0.36380   0.00000  Uiso   1.00
C31    C     0.35202   0.64989   0.33481   0.00000  Uiso   1.00
C32    C     0.30388   0.69837   0.27812   0.00000  Uiso   1.00
O33    O     0.28185   0.72044   0.24723   0.00000  Uiso   1.00
C34    C     0.50000   0.50000   0.50000   0.00000  Uiso   1.00
Zn35   Ag    0.21778   0.71778   0.25000   0.00000  Uiso   1.00
Zn36   Ag    0.78447   0.71553   0.75000   0.00000  Uiso   1.00
loop_
_geom_bond_atom_site_label_1
_geom_bond_atom_site_label_2
_geom_bond_distance
_geom_bond_site_symmetry_2
_ccdc_geom_bond_type
C1     C27     1.399   .     A
C1     C2      1.387   .     A
C1     H3      1.082   .     S
C2     C28     1.386   .     A
C2     H4      1.082   .     S
C5     C31     1.383   .     A
C5     C6      1.393   .     A
C5     H7      1.357   .     S
C6     C32     1.427   .     A
C6     C21     1.499   5_464 S
C8     N9      1.295   .     D
C8     H10     1.082   .     S
C8     C19     1.497   5_464 S
N9     Zn35    1.954   .     S
N9     C11     1.460   .     S
C11    H12     1.110   .     S
C11    H13     1.110   .     S
C11    C11     1.548   7_455 S
C14    C15     1.388   .     A
C14    C27     1.399   6_644 A
C14    H16     1.080   1_545 S
C15    H17     1.082   .     S
C15    C28     1.387   6_644 A
H16    C14     1.080   1_565 S
C18    C19     1.389   .     A
C18    H20     1.082   .     S
C18    C31     1.382   5_565 A
C19    C8      1.497   5_565 S
C19    C32     1.425   5_565 A
C21    N22     1.295   .     D
C21    H23     1.082   .     S
C21    C6      1.499   5_565 S
N22    Zn36    1.953   .     S
N22    C24     1.460   .     S
C24    H25     1.110   .     S
C24    H26     1.110   .     S
C24    C24     1.549   8_666 S
C27    C34     1.531   .     S
C27    C14     1.399   6_655 A
C28    C15     1.387   6_655 A
C28    C29     1.437   4_656 S
C29    C30     1.206   .     T
C29    C28     1.437   3_566 S
C30    C31     1.437   2_665 S
C31    C18     1.382   5_464 A
C31    C30     1.437   2_665 S
C32    O33     1.392   .     S
C32    C19     1.425   5_464 A
O33    Zn35    1.949   .     S
O33    Zn36    1.948   4_656 S
C34    C27     1.531   2_665 S
C34    C27     1.531   3_566 S
C34    C27     1.531   4_656 S
Zn35   N9      1.954   7_455 S
Zn35   O33     1.949   7_455 S
Zn36   N22     1.953   8_666 S
Zn36   O33     1.948   3_566 S
Zn36   O33     1.948   5_565 S
