data_dAgAg08-oh
_audit_creation_date              2025-09-02
_audit_creation_method            'Materials Studio'
_symmetry_space_group_name_H-M    'P-4N2'
_symmetry_Int_Tables_number       118
_symmetry_cell_setting            tetragonal
loop_
_symmetry_equiv_pos_as_xyz
  x,y,z
  -x,-y,z
  y,-x,-z
  -y,x,-z
  x+1/2,-y+1/2,z+1/2
  -x+1/2,y+1/2,z+1/2
  y+1/2,x+1/2,-z+1/2
  -y+1/2,-x+1/2,-z+1/2
_cell_length_a                    16.7978
_cell_length_b                    16.7978
_cell_length_c                    15.5904
_cell_angle_alpha                 90.0000
_cell_angle_beta                  90.0000
_cell_angle_gamma                 90.0000
loop_
_atom_site_label
_atom_site_type_symbol
_atom_site_fract_x
_atom_site_fract_y
_atom_site_fract_z
_atom_site_U_iso_or_equiv
_atom_site_adp_type
_atom_site_occupancy
C1     C     0.53934   0.63585   0.59694   0.00000  Uiso   1.00
C2     C     0.59111   0.68973   0.63485   0.00000  Uiso   1.00
H3     H     0.47863   0.65347   0.58375   0.00000  Uiso   1.00
C4     C     0.77668   0.55194   0.64688   0.00000  Uiso   1.00
N5     N     0.82991   0.58464   0.69549   0.00000  Uiso   1.00
H6     H     0.78974   0.49274   0.62467   0.00000  Uiso   1.00
C7     C     0.90089   0.54286   0.72495   0.00000  Uiso   1.00
H8     H     0.93291   0.51742   0.66906   0.00000  Uiso   1.00
H9     H    -0.00368   0.61977   0.26829   0.00000  Uiso   1.00
C10    C     0.85816   0.03739   0.08561   0.00000  Uiso   1.00
C11    C     0.80373   0.08720   0.12813   0.00000  Uiso   1.00
H12    O     0.83724   0.96226   0.05491   0.00000  Uiso   1.00
C13    C     0.94540   0.26948   0.15233   0.00000  Uiso   1.00
N14    N     0.91253   0.32468   0.19826   0.00000  Uiso   1.00
H15    H     0.00525   0.27958   0.12902   0.00000  Uiso   1.00
C16    C     0.95362   0.39694   0.22541   0.00000  Uiso   1.00
H17    H     0.97816   0.42811   0.16847   0.00000  Uiso   1.00
H18    H     0.88243   0.49348   0.76787   0.00000  Uiso   1.00
C19    C     0.56510   0.56234   0.56903   0.00000  Uiso   1.00
C20    C     0.67150   0.66620   0.64965   0.00000  Uiso   1.00
O21    O     0.72769   0.72291   0.67421   0.00000  Uiso   1.00
H      H     0.77847   0.95073   0.05495   0.00000  Uiso   1.00
Si22   Si    0.00000   0.00000   0.00000   0.00000  Uiso   1.00
Zn23   Ag    0.81237   0.68763   0.75000   0.00000  Uiso   1.00
Zn24   Ag    0.80800   0.30800   0.25000   0.00000  Uiso   1.00
loop_
_geom_bond_atom_site_label_1
_geom_bond_atom_site_label_2
_geom_bond_distance
_geom_bond_site_symmetry_2
_ccdc_geom_bond_type
C1     C19     1.379   .     A
C1     C2      1.387   .     A
C1     H3      1.082   .     S
C2     C20     1.426   .     A
C2     C13     1.498   6_655 S
C4     N5      1.294   .     D
C4     H6      1.075   .     S
C4     C11     1.504   6_655 S
N5     Zn23    1.950   .     S
N5     C7      1.458   .     S
C7     H8      1.110   .     S
C7     H18     1.110   .     S
C7     C7      1.548   8_666 S
H9     C16     1.110   2_665 S
C10    C11     1.406   .     A
C10    C19     1.380   6_644 A
C10    H12     1.395   1_545 S
C11    C4      1.504   6_644 S
C11    C20     1.431   6_644 A
H12    C10     1.395   1_565 S
H12    H       1.006   .     S
C13    N14     1.295   .     D
C13    C2      1.498   6_644 S
C13    H15     1.082   1_655 S
N14    Zn24    1.952   .     S
N14    C16     1.459   .     S
H15    C13     1.082   1_455 S
C16    H17     1.110   .     S
C16    H9      1.110   2_665 S
C16    C16     1.550   7_545 S
C19    C10     1.380   6_655 A
C19    Si22    1.858   5     S
C20    O21     1.395   .     S
C20    C11     1.431   6_655 A
O21    Zn23    1.942   .     S
O21    Zn24    1.949   4_656 S
Si22   C19     1.858   5_454 S
Si22   C19     1.858   6_544 S
Si22   C19     1.858   8     S
Si22   C19     1.858   7_445 S
Zn23   N5      1.950   8_666 S
Zn23   O21     1.942   8_666 S
Zn24   N14     1.952   7_545 S
Zn24   O21     1.949   3_566 S
Zn24   O21     1.949   6_644 S
