data_dAgAg09-ch3
_audit_creation_date              2025-09-02
_audit_creation_method            'Materials Studio'
_symmetry_space_group_name_H-M    'P-4N2'
_symmetry_Int_Tables_number       118
_symmetry_cell_setting            tetragonal
loop_
_symmetry_equiv_pos_as_xyz
  x,y,z
  -x,-y,z
  y,-x,-z
  -y,x,-z
  x+1/2,-y+1/2,z+1/2
  -x+1/2,y+1/2,z+1/2
  y+1/2,x+1/2,-z+1/2
  -y+1/2,-x+1/2,-z+1/2
_cell_length_a                    28.6371
_cell_length_b                    28.6371
_cell_length_c                    27.8340
_cell_angle_alpha                 90.0000
_cell_angle_beta                  90.0000
_cell_angle_gamma                 90.0000
loop_
_atom_site_label
_atom_site_type_symbol
_atom_site_fract_x
_atom_site_fract_y
_atom_site_fract_z
_atom_site_U_iso_or_equiv
_atom_site_adp_type
_atom_site_occupancy
C1     C     0.57167   0.40280   0.44756   0.00000  Uiso   1.00
C2     C     0.60240   0.37843   0.41823   0.00000  Uiso   1.00
H3     H     0.55320   0.38472   0.47590   0.00000  Uiso   1.00
H4     H     0.60770   0.34146   0.42408   0.00000  Uiso   1.00
C5     C     0.64098   0.33254   0.33101   0.00000  Uiso   1.00
C6     C     0.66659   0.30611   0.29872   0.00000  Uiso   1.00
H7     H     0.60696   0.32019   0.34218   0.00000  Uiso   1.00
C8     C     0.77196   0.39021   0.28452   0.00000  Uiso   1.00
N9     N     0.80711   0.36811   0.26617   0.00000  Uiso   1.00
H10    H     0.77615   0.42704   0.29174   0.00000  Uiso   1.00
C11    C     0.85153   0.38953   0.25293   0.00000  Uiso   1.00
H12    H     0.86240   0.41489   0.28094   0.00000  Uiso   1.00
H13    H     0.84712   0.40822   0.21829   0.00000  Uiso   1.00
C14    C     0.08807   0.02672   0.90391   0.00000  Uiso   1.00
C15    C     0.11837   0.05114   0.87416   0.00000  Uiso   1.00
H16    H     0.08219  -0.01015   0.89800   0.00000  Uiso   1.00
H17    H     0.13538   0.03311   0.84485   0.00000  Uiso   1.00
C18    C     0.20115   0.10889   0.83479   0.00000  Uiso   1.00
C19    C     0.22757   0.13320   0.80041   0.00000  Uiso   1.00
C20    C     0.22156   0.06625   0.85826   0.00000  Uiso   1.00
C21    C     0.14311   0.23806   0.78310   0.00000  Uiso   1.00
N22    N     0.16528   0.27333   0.76510   0.00000  Uiso   1.00
H23    H     0.10631   0.24201   0.79099   0.00000  Uiso   1.00
C24    C     0.14400   0.31793   0.75231   0.00000  Uiso   1.00
H25    H     0.11822   0.32834   0.78010   0.00000  Uiso   1.00
H26    H     0.12584   0.31408   0.71730   0.00000  Uiso   1.00
C27    C     0.56462   0.45025   0.44052   0.00000  Uiso   1.00
C28    C     0.62632   0.40133   0.38150   0.00000  Uiso   1.00
C29    C     0.65721   0.37466   0.34891   0.00000  Uiso   1.00
C30    C     0.71039   0.32335   0.28251   0.00000  Uiso   1.00
O31    O     0.73422   0.29980   0.24620   0.00000  Uiso   1.00
C32    C     0.46890   0.52384   0.47151   0.00000  Uiso   1.00
O33    O     0.49251   0.55613   0.50012   0.00000  Uiso   1.00
H34    H     0.22209   0.03678   0.83239   0.00000  Uiso   1.00
H35    H     0.20104   0.05602   0.89030   0.00000  Uiso   1.00
H36    H     0.25759   0.07394   0.87064   0.00000  Uiso   1.00
Ag37   Ag    0.80205   0.30205   0.25000   0.00000  Uiso   1.00
Ag38   Ag    0.23177   0.26823   0.75000   0.00000  Uiso   1.00
O39    O     0.50000   0.50000   0.44178   0.00000  Uiso   1.00
loop_
_geom_bond_atom_site_label_1
_geom_bond_atom_site_label_2
_geom_bond_distance
_geom_bond_site_symmetry_2
_ccdc_geom_bond_type
C1     C27     1.387   .     A
C1     C2      1.389   .     A
C1     H3      1.082   .     S
C2     C28     1.394   .     A
C2     H4      1.082   .     S
C5     C29     1.385   .     A
C5     C6      1.385   .     A
C5     H7      1.082   .     S
C6     C30     1.421   .     A
C6     C21     1.497   5_554 S
C8     N9      1.294   .     D
C8     H10     1.080   .     S
C8     C19     1.504   5_554 S
N9     Ag37    1.950   .     S
N9     C11     1.459   .     S
C11    H12     1.110   .     S
C11    H13     1.110   .     S
C11    C11     1.548   7_545 S
C14    C15     1.388   .     A
C14    H16     1.082   .     S
C14    C27     1.387   5_455 A
C15    H17     1.082   .     S
C15    C28     1.395   5_455 A
C18    C19     1.405   .     A
C18    C20     1.503   .     S
C18    C29     1.400   5_455 A
C19    C8      1.504   5_455 S
C19    C30     1.428   5_455 A
C20    H34     1.110   .     S
C20    H35     1.108   .     S
C20    H36     1.110   .     S
C21    N22     1.294   .     D
C21    H23     1.082   .     S
C21    C6      1.497   5_455 S
N22    Ag38    1.955   .     S
N22    C24     1.459   .     S
C24    H25     1.110   .     S
C24    H26     1.110   .     S
C24    C24     1.547   8_556 S
C27    C14     1.387   5_554 A
C27    C32     1.489   2_665 S
C28    C29     1.480   .     S
C28    C15     1.395   5_554 A
C29    C18     1.400   5_554 A
C30    O31     1.394   .     S
C30    C19     1.428   5_554 A
O31    Ag37    1.946   .     S
O31    Ag38    1.952   4_656 S
C32    O39     1.394   .     S
C32    C27     1.489   2_665 S
C32    O33     1.394   4_656 S
O33    C32     1.394   3_566 S
Ag37   N9      1.950   7_545 S
Ag37   O31     1.946   7_545 S
Ag38   N22     1.955   8_556 S
Ag38   O31     1.952   3_566 S
Ag38   O31     1.952   5_455 S
O39    C32     1.394   2_665 S
