data_dAgAg09-nh2
_audit_creation_date              2025-09-02
_audit_creation_method            'Materials Studio'
_symmetry_space_group_name_H-M    'P-4N2'
_symmetry_Int_Tables_number       118
_symmetry_cell_setting            tetragonal
loop_
_symmetry_equiv_pos_as_xyz
  x,y,z
  -x,-y,z
  y,-x,-z
  -y,x,-z
  x+1/2,-y+1/2,z+1/2
  -x+1/2,y+1/2,z+1/2
  y+1/2,x+1/2,-z+1/2
  -y+1/2,-x+1/2,-z+1/2
_cell_length_a                    28.7859
_cell_length_b                    28.7859
_cell_length_c                    27.4685
_cell_angle_alpha                 90.0000
_cell_angle_beta                  90.0000
_cell_angle_gamma                 90.0000
loop_
_atom_site_label
_atom_site_type_symbol
_atom_site_fract_x
_atom_site_fract_y
_atom_site_fract_z
_atom_site_U_iso_or_equiv
_atom_site_adp_type
_atom_site_occupancy
C1     C     0.56777   0.40127   0.44589   0.00000  Uiso   1.00
C2     C     0.59779   0.37630   0.41621   0.00000  Uiso   1.00
H3     H     0.54804   0.38353   0.47379   0.00000  Uiso   1.00
H4     H     0.60130   0.33922   0.42140   0.00000  Uiso   1.00
C5     C     0.63721   0.33008   0.32879   0.00000  Uiso   1.00
C6     C     0.66305   0.30335   0.29678   0.00000  Uiso   1.00
H7     H     0.60309   0.31814   0.33960   0.00000  Uiso   1.00
C8     C     0.76786   0.38682   0.28227   0.00000  Uiso   1.00
N9     N     0.80331   0.36455   0.26512   0.00000  Uiso   1.00
H10    H     0.77125   0.42386   0.28743   0.00000  Uiso   1.00
C11    C     0.84764   0.38559   0.25176   0.00000  Uiso   1.00
H12    H     0.85782   0.41191   0.27930   0.00000  Uiso   1.00
H13    H     0.84387   0.40276   0.21580   0.00000  Uiso   1.00
C14    C     0.08813   0.02849   0.90375   0.00000  Uiso   1.00
C15    C     0.11779   0.05347   0.87370   0.00000  Uiso   1.00
H16    H     0.08410  -0.00854   0.89858   0.00000  Uiso   1.00
H17    H     0.13615   0.03568   0.84484   0.00000  Uiso   1.00
C18    C     0.19772   0.11250   0.83385   0.00000  Uiso   1.00
C19    C     0.22399   0.13657   0.79893   0.00000  Uiso   1.00
N20    N     0.21715   0.07312   0.85834   0.00000  Uiso   1.00
C21    C     0.13986   0.24073   0.78114   0.00000  Uiso   1.00
N22    N     0.16221   0.27615   0.76401   0.00000  Uiso   1.00
H23    H     0.10312   0.24451   0.78851   0.00000  Uiso   1.00
C24    C     0.14128   0.32077   0.75157   0.00000  Uiso   1.00
H25    H     0.11514   0.33061   0.77944   0.00000  Uiso   1.00
H26    H     0.12385   0.31763   0.71567   0.00000  Uiso   1.00
C27    C     0.56302   0.44888   0.43975   0.00000  Uiso   1.00
C28    C     0.62330   0.39877   0.38007   0.00000  Uiso   1.00
C29    C     0.65364   0.37174   0.34718   0.00000  Uiso   1.00
C30    C     0.70691   0.32019   0.28086   0.00000  Uiso   1.00
O31    O     0.73112   0.29626   0.24480   0.00000  Uiso   1.00
C32    C     0.46969   0.52451   0.47113   0.00000  Uiso   1.00
O33    O     0.49401   0.55601   0.50010   0.00000  Uiso   1.00
H34    H     0.25141   0.06284   0.85260   0.00000  Uiso   1.00
H35    H     0.19967   0.05766   0.88735   0.00000  Uiso   1.00
Ag36   Ag    0.79853   0.29853   0.25000   0.00000  Uiso   1.00
Ag37   Ag    0.22865   0.27135   0.75000   0.00000  Uiso   1.00
O38    O     0.50000   0.50000   0.44100   0.00000  Uiso   1.00
loop_
_geom_bond_atom_site_label_1
_geom_bond_atom_site_label_2
_geom_bond_distance
_geom_bond_site_symmetry_2
_ccdc_geom_bond_type
C1     C27     1.388   .     A
C1     C2      1.388   .     A
C1     H3      1.082   .     S
C2     C28     1.394   .     A
C2     H4      1.082   .     S
C5     C29     1.385   .     A
C5     C6      1.385   .     A
C5     H7      1.082   .     S
C6     C30     1.421   .     A
C6     C21     1.497   5_554 S
C8     N9      1.294   .     D
C8     H10     1.080   .     S
C8     C19     1.503   5_554 S
N9     Ag36    1.950   .     S
N9     C11     1.459   .     S
C11    H12     1.110   .     S
C11    H13     1.110   .     S
C11    C11     1.548   7_545 S
C14    C15     1.388   .     A
C14    H16     1.082   .     S
C14    C27     1.387   5_455 A
C15    H17     1.082   .     S
C15    C28     1.395   5_455 A
C18    C19     1.404   .     A
C18    N20     1.432   .     S
C18    C29     1.396   5_455 A
C19    C8      1.503   5_455 S
C19    C30     1.427   5_455 A
N20    H34     1.042   .     S
N20    H35     1.042   .     S
C21    N22     1.294   .     D
C21    H23     1.082   .     S
C21    C6      1.497   5_455 S
N22    Ag37    1.956   .     S
N22    C24     1.459   .     S
C24    H25     1.110   .     S
C24    H26     1.110   .     S
C24    C24     1.547   8_556 S
C27    C14     1.387   5_554 A
C27    C32     1.489   2_665 S
C28    C29     1.478   .     S
C28    C15     1.395   5_554 A
C29    C18     1.396   5_554 A
C30    O31     1.393   .     S
C30    C19     1.427   5_554 A
O31    Ag36    1.947   .     S
O31    Ag37    1.953   4_656 S
C32    O38     1.394   .     S
C32    C27     1.489   2_665 S
C32    O33     1.394   4_656 S
O33    C32     1.394   3_566 S
Ag36   N9      1.950   7_545 S
Ag36   O31     1.947   7_545 S
Ag37   N22     1.956   8_556 S
Ag37   O31     1.953   3_566 S
Ag37   O31     1.953   5_455 S
O38    C32     1.394   2_665 S
