data_dAgAg09-f
_audit_creation_date              2025-09-02
_audit_creation_method            'Materials Studio'
_symmetry_space_group_name_H-M    'P-4N2'
_symmetry_Int_Tables_number       118
_symmetry_cell_setting            tetragonal
loop_
_symmetry_equiv_pos_as_xyz
  x,y,z
  -x,-y,z
  y,-x,-z
  -y,x,-z
  x+1/2,-y+1/2,z+1/2
  -x+1/2,y+1/2,z+1/2
  y+1/2,x+1/2,-z+1/2
  -y+1/2,-x+1/2,-z+1/2
_cell_length_a                    29.0144
_cell_length_b                    29.0144
_cell_length_c                    27.1320
_cell_angle_alpha                 90.0000
_cell_angle_beta                  90.0000
_cell_angle_gamma                 90.0000
loop_
_atom_site_label
_atom_site_type_symbol
_atom_site_fract_x
_atom_site_fract_y
_atom_site_fract_z
_atom_site_U_iso_or_equiv
_atom_site_adp_type
_atom_site_occupancy
C1     C     0.55887   0.39802   0.44230   0.00000  Uiso   1.00
C2     C     0.58700   0.37177   0.41185   0.00000  Uiso   1.00
H3     H     0.53646   0.38120   0.46862   0.00000  Uiso   1.00
H4     H     0.58645   0.33464   0.41520   0.00000  Uiso   1.00
C5     C     0.62957   0.32245   0.32819   0.00000  Uiso   1.00
C6     C     0.65537   0.29521   0.29640   0.00000  Uiso   1.00
H7     H     0.59601   0.31044   0.33982   0.00000  Uiso   1.00
C8     C     0.75963   0.37799   0.28202   0.00000  Uiso   1.00
N9     N     0.79488   0.35585   0.26485   0.00000  Uiso   1.00
H10    H     0.76344   0.41442   0.28954   0.00000  Uiso   1.00
C11    C     0.83913   0.37674   0.25236   0.00000  Uiso   1.00
H12    H     0.84923   0.40191   0.28122   0.00000  Uiso   1.00
H13    H     0.83571   0.39502   0.21661   0.00000  Uiso   1.00
C14    C     0.08809   0.03281   0.90512   0.00000  Uiso   1.00
C15    C     0.11617   0.05895   0.87457   0.00000  Uiso   1.00
H16    H     0.08828  -0.00438   0.90217   0.00000  Uiso   1.00
H17    H     0.13749   0.04166   0.84764   0.00000  Uiso   1.00
C18    C     0.18805   0.11914   0.82886   0.00000  Uiso   1.00
C19    C     0.21533   0.14480   0.79672   0.00000  Uiso   1.00
H20    F     0.20429   0.07833   0.84606   0.00000  Uiso   1.00
C21    C     0.13249   0.24895   0.78159   0.00000  Uiso   1.00
N22    N     0.15465   0.28424   0.76451   0.00000  Uiso   1.00
H23    H     0.09604   0.25265   0.78913   0.00000  Uiso   1.00
C24    C     0.13384   0.32852   0.75201   0.00000  Uiso   1.00
H25    H     0.10833   0.33845   0.78061   0.00000  Uiso   1.00
H26    H     0.11599   0.32526   0.71601   0.00000  Uiso   1.00
C27    C     0.55937   0.44573   0.43890   0.00000  Uiso   1.00
C28    C     0.61599   0.39304   0.37768   0.00000  Uiso   1.00
C29    C     0.64522   0.36499   0.34449   0.00000  Uiso   1.00
C30    C     0.69897   0.31162   0.28000   0.00000  Uiso   1.00
O31    O     0.72333   0.28732   0.24424   0.00000  Uiso   1.00
C32    C     0.47145   0.52610   0.47077   0.00000  Uiso   1.00
O33    O     0.49749   0.55585   0.50002   0.00000  Uiso   1.00
Zn34   Ag    0.79017   0.29017   0.25000   0.00000  Uiso   1.00
Zn35   Ag    0.22044   0.27956   0.75000   0.00000  Uiso   1.00
O36    O     0.50000   0.50000   0.44030   0.00000  Uiso   1.00
loop_
_geom_bond_atom_site_label_1
_geom_bond_atom_site_label_2
_geom_bond_distance
_geom_bond_site_symmetry_2
_ccdc_geom_bond_type
C1     C27     1.387   .     A
C1     C2      1.389   .     A
C1     H3      1.082   .     S
C2     C28     1.396   .     A
C2     H4      1.081   .     S
C5     C29     1.388   .     A
C5     C6      1.389   .     A
C5     H7      1.081   .     S
C6     C30     1.423   .     A
C6     C21     1.498   5_554 S
C8     N9      1.295   .     D
C8     H10     1.082   .     S
C8     C19     1.499   5_554 S
N9     Zn34    1.953   .     S
N9     C11     1.460   .     S
C11    H12     1.110   .     S
C11    H13     1.110   .     S
C11    C11     1.548   7_545 S
C14    C15     1.388   .     A
C14    H16     1.082   .     S
C14    C27     1.387   5_455 A
C15    H17     1.081   .     S
C15    C28     1.395   5_455 A
C18    C19     1.393   .     A
C18    H20     1.357   .     S
C18    C29     1.392   5_455 A
C19    C8      1.499   5_455 S
C19    C30     1.425   5_455 A
C21    N22     1.295   .     D
C21    H23     1.082   .     S
C21    C6      1.498   5_455 S
N22    Zn35    1.954   .     S
N22    C24     1.460   .     S
C24    H25     1.110   .     S
C24    H26     1.110   .     S
C24    C24     1.548   8_556 S
C27    C14     1.387   5_554 A
C27    C32     1.489   2_665 S
C28    C29     1.480   .     S
C28    C15     1.395   5_554 A
C29    C18     1.392   5_554 A
C30    O31     1.392   .     S
C30    C19     1.425   5_554 A
O31    Zn34    1.947   .     S
O31    Zn35    1.949   4_656 S
C32    O36     1.394   .     S
C32    C27     1.489   2_665 S
C32    O33     1.395   4_656 S
O33    C32     1.395   3_566 S
Zn34   N9      1.953   7_545 S
Zn34   O31     1.947   7_545 S
Zn35   N22     1.954   8_556 S
Zn35   O31     1.949   3_566 S
Zn35   O31     1.949   5_455 S
O36    C32     1.394   2_665 S
