data_dAgAg02
_audit_creation_date              2025-09-02
_audit_creation_method            'Materials Studio'
_symmetry_space_group_name_H-M    'P-4N2'
_symmetry_Int_Tables_number       118
_symmetry_cell_setting            tetragonal
loop_
_symmetry_equiv_pos_as_xyz
  x,y,z
  -x,-y,z
  y,-x,-z
  -y,x,-z
  x+1/2,-y+1/2,z+1/2
  -x+1/2,y+1/2,z+1/2
  y+1/2,x+1/2,-z+1/2
  -y+1/2,-x+1/2,-z+1/2
_cell_length_a                    31.7765
_cell_length_b                    31.7765
_cell_length_c                    32.3605
_cell_angle_alpha                 90.0000
_cell_angle_beta                  90.0000
_cell_angle_gamma                 90.0000
loop_
_atom_site_label
_atom_site_type_symbol
_atom_site_fract_x
_atom_site_fract_y
_atom_site_fract_z
_atom_site_U_iso_or_equiv
_atom_site_adp_type
_atom_site_occupancy
C1     C     0.51363   0.55954   0.56254   0.00000  Uiso   1.00
C2     C     0.53781   0.58375   0.58917   0.00000  Uiso   1.00
H3     H     0.47966   0.56115   0.56400   0.00000  Uiso   1.00
H4     H     0.52262   0.60428   0.61128   0.00000  Uiso   1.00
C5     C     0.36385   0.69026   0.31858   0.00000  Uiso   1.00
C6     C     0.34097   0.71472   0.29094   0.00000  Uiso   1.00
H7     H     0.39404   0.70130   0.32963   0.00000  Uiso   1.00
C8     C     0.24606   0.63870   0.27812   0.00000  Uiso   1.00
N9     N     0.21406   0.65868   0.26300   0.00000  Uiso   1.00
H10    H     0.24262   0.60554   0.28496   0.00000  Uiso   1.00
C11    C     0.17378   0.63948   0.25230   0.00000  Uiso   1.00
H12    H     0.16431   0.61672   0.27661   0.00000  Uiso   1.00
H13    H     0.17720   0.62253   0.22250   0.00000  Uiso   1.00
C14    C     0.92345   0.03061   0.03267   0.00000  Uiso   1.00
C15    C     0.89923   0.05481   0.05932   0.00000  Uiso   1.00
H16    H     0.90823   1.00964   0.01104   0.00000  Uiso   1.00
H17    H     0.86527   0.05274   0.05818   0.00000  Uiso   1.00
C18    C     0.81057   0.86309   0.81840   0.00000  Uiso   1.00
C19    C     0.78616   0.84016   0.79078   0.00000  Uiso   1.00
H20    H     0.79955   0.89334   0.82930   0.00000  Uiso   1.00
C21    C     0.86211   0.74512   0.77843   0.00000  Uiso   1.00
N22    N     0.84217   0.71311   0.76326   0.00000  Uiso   1.00
H23    H     0.89524   0.74166   0.78538   0.00000  Uiso   1.00
C24    C     0.86142   0.67284   0.75260   0.00000  Uiso   1.00
H25    H     0.88385   0.66323   0.77715   0.00000  Uiso   1.00
H26    H     0.87878   0.67640   0.72304   0.00000  Uiso   1.00
C27    C     0.53291   0.53305   0.53412   0.00000  Uiso   1.00
C28    C     0.58142   0.58139   0.58762   0.00000  Uiso   1.00
C29    C     0.60601   0.39358   0.38437   0.00000  Uiso   1.00
C30    C     0.62661   0.37276   0.36067   0.00000  Uiso   1.00
C31    C     0.34887   0.65188   0.33228   0.00000  Uiso   1.00
C32    C     0.30138   0.69949   0.27658   0.00000  Uiso   1.00
O33    O     0.27966   0.72125   0.24594   0.00000  Uiso   1.00
C34    Si    0.50000   0.50000   0.50000   0.00000  Uiso   1.00
Zn35   Ag    0.21856   0.71856   0.25000   0.00000  Uiso   1.00
Zn36   Ag    0.78235   0.71765   0.75000   0.00000  Uiso   1.00
loop_
_geom_bond_atom_site_label_1
_geom_bond_atom_site_label_2
_geom_bond_distance
_geom_bond_site_symmetry_2
_ccdc_geom_bond_type
C1     C27     1.389   .     A
C1     C2      1.388   .     A
C1     H3      1.082   .     S
C2     C28     1.389   .     A
C2     H4      1.082   .     S
C5     C31     1.382   .     A
C5     C6      1.390   .     A
C5     H7      1.082   .     S
C6     C32     1.426   .     A
C6     C21     1.498   5_464 S
C8     N9      1.295   .     D
C8     H10     1.082   .     S
C8     C19     1.498   5_464 S
N9     Zn35    1.954   .     S
N9     C11     1.460   .     S
C11    H12     1.110   .     S
C11    H13     1.110   .     S
C11    C11     1.548   7_455 S
C14    C15     1.388   .     A
C14    C27     1.390   6_644 A
C14    H16     1.081   1_545 S
C15    H17     1.082   .     S
C15    C28     1.389   6_644 A
H16    C14     1.081   1_565 S
C18    C19     1.390   .     A
C18    H20     1.082   .     S
C18    C31     1.382   5_565 A
C19    C8      1.498   5_565 S
C19    C32     1.426   5_565 A
C21    N22     1.295   .     D
C21    H23     1.082   .     S
C21    C6      1.498   5_565 S
N22    Zn36    1.954   .     S
N22    C24     1.460   .     S
C24    H25     1.110   .     S
C24    H26     1.110   .     S
C24    C24     1.549   8_666 S
C27    C34     1.848   .     S
C27    C14     1.390   6_655 A
C28    C15     1.389   6_655 A
C28    C29     1.437   4_656 S
C29    C30     1.206   .     T
C29    C28     1.437   3_566 S
C30    C31     1.437   2_665 S
C31    C18     1.382   5_464 A
C31    C30     1.437   2_665 S
C32    O33     1.392   .     S
C32    C19     1.426   5_464 A
O33    Zn35    1.948   .     S
O33    Zn36    1.948   4_656 S
C34    C27     1.848   2_665 S
C34    C27     1.848   3_566 S
C34    C27     1.848   4_656 S
Zn35   N9      1.954   7_455 S
Zn35   O33     1.948   7_455 S
Zn36   N22     1.954   8_666 S
Zn36   O33     1.948   3_566 S
Zn36   O33     1.948   5_565 S
