data_dAgAg05-nh2
_audit_creation_date              2025-09-02
_audit_creation_method            'Materials Studio'
_symmetry_space_group_name_H-M    'P-4N2'
_symmetry_Int_Tables_number       118
_symmetry_cell_setting            tetragonal
loop_
_symmetry_equiv_pos_as_xyz
  x,y,z
  -x,-y,z
  y,-x,-z
  -y,x,-z
  x+1/2,-y+1/2,z+1/2
  -x+1/2,y+1/2,z+1/2
  y+1/2,x+1/2,-z+1/2
  -y+1/2,-x+1/2,-z+1/2
_cell_length_a                    22.0796
_cell_length_b                    22.0796
_cell_length_c                    19.8692
_cell_angle_alpha                 90.0000
_cell_angle_beta                  90.0000
_cell_angle_gamma                 90.0000
loop_
_atom_site_label
_atom_site_type_symbol
_atom_site_fract_x
_atom_site_fract_y
_atom_site_fract_z
_atom_site_U_iso_or_equiv
_atom_site_adp_type
_atom_site_occupancy
C1     C     0.58071   0.66538   0.64258   0.00000  Uiso   1.00
C2     C     0.61366   0.70123   0.68798   0.00000  Uiso   1.00
N3     N     0.52477   0.68631   0.61469   0.00000  Uiso   1.00
C4     C     0.75071   0.59231   0.71004   0.00000  Uiso   1.00
N5     N     0.79729   0.62181   0.73215   0.00000  Uiso   1.00
H6     H     0.75548   0.54427   0.70060   0.00000  Uiso   1.00
C7     C     0.85573   0.59474   0.74865   0.00000  Uiso   1.00
H8     H     0.86798   0.56023   0.71036   0.00000  Uiso   1.00
H9     H     0.06600   0.63956   0.30040   0.00000  Uiso   1.00
C10    C     0.84292   0.08786   0.14653   0.00000  Uiso   1.00
C11    C     0.80729   0.12215   0.18950   0.00000  Uiso   1.00
H12    H     0.82739   0.04367   0.13047   0.00000  Uiso   1.00
C13    C     0.91628   0.25885   0.21065   0.00000  Uiso   1.00
N14    N     0.88659   0.30558   0.23202   0.00000  Uiso   1.00
H15    H     0.96471   0.26322   0.20493   0.00000  Uiso   1.00
C16    C     0.91345   0.36388   0.24957   0.00000  Uiso   1.00
H17    H     0.94914   0.37604   0.21261   0.00000  Uiso   1.00
H18    H     0.85239   0.57257   0.79864   0.00000  Uiso   1.00
C19    C     0.46298   0.46071   0.54275   0.00000  Uiso   1.00
C20    C     0.43301   0.42869   0.57894   0.00000  Uiso   1.00
C21    C     0.60219   0.60898   0.62312   0.00000  Uiso   1.00
C22    C     0.67105   0.67971   0.71109   0.00000  Uiso   1.00
O23    O     0.70336   0.71220   0.75929   0.00000  Uiso   1.00
H24    H     0.49899   0.65783   0.58412   0.00000  Uiso   1.00
H25    H     0.51079   0.73116   0.61955   0.00000  Uiso   1.00
C26    C     0.50000   0.50000   0.50000   0.00000  Uiso   1.00
Ag27   Ag    0.79131   0.70869   0.75000   0.00000  Uiso   1.00
Ag28   Ag    0.79991   0.29991   0.25000   0.00000  Uiso   1.00
loop_
_geom_bond_atom_site_label_1
_geom_bond_atom_site_label_2
_geom_bond_distance
_geom_bond_site_symmetry_2
_ccdc_geom_bond_type
C1     C21     1.387   .     A
C1     C2      1.403   .     A
C1     N3      1.431   .     S
C2     C22     1.429   .     A
C2     C13     1.503   6_655 S
N3     H24     1.043   .     S
N3     H25     1.042   .     S
C4     N5      1.294   .     D
C4     H6      1.082   .     S
C4     C11     1.497   6_655 S
N5     Ag27    1.955   .     S
N5     C7      1.459   .     S
C7     H8      1.110   .     S
C7     H18     1.110   .     S
C7     C7      1.547   8_666 S
H9     C16     1.110   2_665 S
C10    C11     1.386   .     A
C10    H12     1.082   .     S
C10    C21     1.379   6_644 A
C11    C4      1.497   6_644 S
C11    C22     1.424   6_644 A
C13    N14     1.294   .     D
C13    H15     1.080   .     S
C13    C2      1.503   6_644 S
N14    Ag28    1.951   .     S
N14    C16     1.459   .     S
C16    H17     1.110   .     S
C16    H9      1.110   2_665 S
C16    C16     1.548   7_545 S
C19    C26     1.464   .     S
C19    C20     1.206   .     T
C20    C21     1.438   2_665 S
C21    C10     1.379   6_655 A
C21    C20     1.438   2_665 S
C22    O23     1.393   .     S
C22    C11     1.424   6_655 A
O23    Ag27    1.952   .     S
O23    Ag28    1.947   4_656 S
C26    C19     1.464   2_665 S
C26    C19     1.464   3_566 S
C26    C19     1.464   4_656 S
Ag27   N5      1.955   8_666 S
Ag27   O23     1.952   8_666 S
Ag28   N14     1.951   7_545 S
Ag28   O23     1.947   3_566 S
Ag28   O23     1.947   6_644 S
