data_dAgAg10
_audit_creation_date              2025-09-02
_audit_creation_method            'Materials Studio'
_symmetry_space_group_name_H-M    'P-4N2'
_symmetry_Int_Tables_number       118
_symmetry_cell_setting            tetragonal
loop_
_symmetry_equiv_pos_as_xyz
  x,y,z
  -x,-y,z
  y,-x,-z
  -y,x,-z
  x+1/2,-y+1/2,z+1/2
  -x+1/2,y+1/2,z+1/2
  y+1/2,x+1/2,-z+1/2
  -y+1/2,-x+1/2,-z+1/2
_cell_length_a                    32.9516
_cell_length_b                    32.9516
_cell_length_c                    40.7527
_cell_angle_alpha                 90.0000
_cell_angle_beta                  90.0000
_cell_angle_gamma                 90.0000
loop_
_atom_site_label
_atom_site_type_symbol
_atom_site_fract_x
_atom_site_fract_y
_atom_site_fract_z
_atom_site_U_iso_or_equiv
_atom_site_adp_type
_atom_site_occupancy
C1     C     0.55693   0.44205   0.55452   0.00000  Uiso   1.00
C2     C     0.58329   0.46104   0.57621   0.00000  Uiso   1.00
C3     C     0.55369   0.40005   0.55436   0.00000  Uiso   1.00
C4     C     0.60656   0.43801   0.59767   0.00000  Uiso   1.00
H5     H     0.58582   0.49376   0.57629   0.00000  Uiso   1.00
C6     C     0.57694   0.37700   0.57581   0.00000  Uiso   1.00
H7     H     0.53319   0.38526   0.53744   0.00000  Uiso   1.00
C8     C     0.60347   0.39596   0.59744   0.00000  Uiso   1.00
H9     H     0.62720   0.45285   0.61446   0.00000  Uiso   1.00
H10    H     0.57449   0.34426   0.57556   0.00000  Uiso   1.00
C11    C     0.37203   0.37205   0.38072   0.00000  Uiso   1.00
C12    C     0.35178   0.35145   0.36254   0.00000  Uiso   1.00
C13    C     0.67309   0.32742   0.65894   0.00000  Uiso   1.00
C14    C     0.71061   0.34136   0.66909   0.00000  Uiso   1.00
C15    C     0.65932   0.28983   0.66903   0.00000  Uiso   1.00
C16    C     0.73521   0.31831   0.68960   0.00000  Uiso   1.00
H17    H     0.72094   0.37078   0.66074   0.00000  Uiso   1.00
C18    C     0.68242   0.26531   0.68955   0.00000  Uiso   1.00
H19    H     0.62997   0.27938   0.66063   0.00000  Uiso   1.00
C20    C     0.72115   0.27950   0.70011   0.00000  Uiso   1.00
C21    C     0.66351   0.22516   0.69747   0.00000  Uiso   1.00
O22    O     0.74666   0.25404   0.71792   0.00000  Uiso   1.00
N23    N     0.67366   0.20343   0.72263   0.00000  Uiso   1.00
H24    H     0.63796   0.21541   0.68277   0.00000  Uiso   1.00
C25    C     0.65454   0.16519   0.73200   0.00000  Uiso   1.00
H26    H     0.66594   0.14077   0.71567   0.00000  Uiso   1.00
H27    H     0.62110   0.16755   0.72927   0.00000  Uiso   1.00
C28    C     0.16267   0.72470   0.80242   0.00000  Uiso   1.00
Si29   Si    0.47318   0.52750   0.52566   0.00000  Uiso   1.00
O30    O     0.44898   0.50064   0.50000   0.00000  Uiso   1.00
N31    N     0.17284   0.70290   0.77729   0.00000  Uiso   1.00
C32    C     0.15368   0.66468   0.76793   0.00000  Uiso   1.00
H33    H     0.13704   0.71502   0.81707   0.00000  Uiso   1.00
H34    H     0.12023   0.66719   0.77041   0.00000  Uiso   1.00
H35    H     0.16477   0.64032   0.78448   0.00000  Uiso   1.00
Li36   Ag    0.71958   0.21958   0.75000   0.00000  Uiso   1.00
O37    O     0.50000   0.50000   0.54613   0.00000  Uiso   1.00
Li38   Ag    0.21889   0.71889   0.75000   0.00000  Uiso   1.00
loop_
_geom_bond_atom_site_label_1
_geom_bond_atom_site_label_2
_geom_bond_distance
_geom_bond_site_symmetry_2
_ccdc_geom_bond_type
C1     C2      1.388   .     D
C1     C3      1.388   .     S
C1     Si29    1.837   2_665 S
C2     C4      1.389   .     S
C2     H5      1.082   .     S
C3     C6      1.388   .     D
C3     H7      1.082   .     S
C4     C8      1.390   .     D
C4     H9      1.082   .     S
C6     C8      1.390   .     S
C6     H10     1.082   .     S
C8     C11     1.437   4_656 S
C11    C12     1.206   .     T
C11    C8      1.437   3_566 S
C12    C13     1.437   3_566 S
C13    C14     1.382   .     D
C13    C15     1.382   .     S
C13    C12     1.437   4_656 S
C14    C16     1.390   .     S
C14    H17     1.082   .     S
C15    C18     1.390   .     D
C15    H19     1.082   .     S
C16    C20     1.426   .     D
C16    C28     1.498   8_656 S
C18    C20     1.426   .     S
C18    C21     1.498   .     S
C20    O22     1.392   .     S
C21    N23     1.295   .     D
C21    H24     1.082   .     S
O22    Li36    1.948   .     S
O22    Li38    1.948   2_665 S
N23    Li36    1.954   .     S
N23    C25     1.460   .     S
C25    H26     1.110   .     S
C25    H27     1.110   .     S
C25    C25     1.548   7_546 S
C28    N31     1.295   .     D
C28    H33     1.082   .     S
C28    C16     1.498   8_566 S
Si29   O30     1.585   .     S
Si29   O37     1.516   .     S
Si29   C1      1.837   2_665 S
Si29   O30     1.585   3_566 S
Si29   Si29    2.531   2_665 S
O30    Si29    1.585   4_656 S
N31    C32     1.460   .     S
N31    Li38    1.954   .     S
C32    H34     1.110   .     S
C32    H35     1.110   .     S
C32    C32     1.549   7_456 S
Li36   O22     1.948   7_546 S
Li36   N23     1.954   7_546 S
O37    Si29    1.516   2_665 S
Li38   N31     1.954   7_456 S
Li38   O22     1.948   2_665 S
Li38   O22     1.948   8_566 S
