data_dAgAg04
_audit_creation_date              2025-09-02
_audit_creation_method            'Materials Studio'
_symmetry_space_group_name_H-M    'P-4N2'
_symmetry_Int_Tables_number       118
_symmetry_cell_setting            tetragonal
loop_
_symmetry_equiv_pos_as_xyz
  x,y,z
  -x,-y,z
  y,-x,-z
  -y,x,-z
  x+1/2,-y+1/2,z+1/2
  -x+1/2,y+1/2,z+1/2
  y+1/2,x+1/2,-z+1/2
  -y+1/2,-x+1/2,-z+1/2
_cell_length_a                    25.3698
_cell_length_b                    25.3698
_cell_length_c                    27.8053
_cell_angle_alpha                 90.0000
_cell_angle_beta                  90.0000
_cell_angle_gamma                 90.0000
loop_
_atom_site_label
_atom_site_type_symbol
_atom_site_fract_x
_atom_site_fract_y
_atom_site_fract_z
_atom_site_U_iso_or_equiv
_atom_site_adp_type
_atom_site_occupancy
C1     C     0.53379   0.59757   0.53796   0.00000  Uiso   1.00
C2     C     0.56440   0.62958   0.56722   0.00000  Uiso   1.00
H3     H     0.50547   0.61523   0.51381   0.00000  Uiso   1.00
H4     H     0.55990   0.67187   0.56484   0.00000  Uiso   1.00
C5     C     0.37460   0.68423   0.35632   0.00000  Uiso   1.00
C6     C     0.34243   0.71714   0.32902   0.00000  Uiso   1.00
H7     H     0.41325   0.69804   0.36676   0.00000  Uiso   1.00
C8     C     0.22404   0.62451   0.31704   0.00000  Uiso   1.00
N9     N     0.19096   0.64305   0.28568   0.00000  Uiso   1.00
H10    H     0.21565   0.58616   0.33230   0.00000  Uiso   1.00
C11    C     0.14619   0.61289   0.26758   0.00000  Uiso   1.00
H12    H     0.12123   0.59968   0.29808   0.00000  Uiso   1.00
H13    H     0.16120   0.57764   0.24828   0.00000  Uiso   1.00
C14    C     0.92443   0.02098   0.07120   0.00000  Uiso   1.00
C15    C     0.89355   0.05288   0.10033   0.00000  Uiso   1.00
H16    H     0.92024   0.97859   0.07295   0.00000  Uiso   1.00
H17    H     0.86593   0.03472   0.12484   0.00000  Uiso   1.00
C18    C     0.80588   0.88333   0.85680   0.00000  Uiso   1.00
C19    C     0.77286   0.85170   0.82941   0.00000  Uiso   1.00
H20    H     0.79333   0.92265   0.86652   0.00000  Uiso   1.00
C21    C     0.86619   0.73402   0.81661   0.00000  Uiso   1.00
N22    N     0.84748   0.70078   0.78549   0.00000  Uiso   1.00
H23    H     0.90466   0.72571   0.83166   0.00000  Uiso   1.00
C24    C     0.87756   0.65594   0.76743   0.00000  Uiso   1.00
H25    H     0.89094   0.63114   0.79797   0.00000  Uiso   1.00
H26    H     0.91267   0.67088   0.74789   0.00000  Uiso   1.00
C27    C     0.53972   0.54321   0.53945   0.00000  Uiso   1.00
C28    C     0.60139   0.60759   0.59841   0.00000  Uiso   1.00
C29    C     0.35811   0.63488   0.37137   0.00000  Uiso   1.00
C30    C     0.29046   0.69992   0.31674   0.00000  Uiso   1.00
O31    O     0.25445   0.73602   0.29887   0.00000  Uiso   1.00
Si32   Si    0.50000   0.50000   0.50000   0.00000  Uiso   1.00
Zn33   Ag    0.20761   0.70761   0.25000   0.00000  Uiso   1.00
Zn34   Ag    0.78280   0.71720   0.75000   0.00000  Uiso   1.00
loop_
_geom_bond_atom_site_label_1
_geom_bond_atom_site_label_2
_geom_bond_distance
_geom_bond_site_symmetry_2
_ccdc_geom_bond_type
C1     C27     1.388   .     A
C1     C2      1.387   .     A
C1     H3      1.081   .     S
C2     C28     1.394   .     A
C2     H4      1.081   .     S
C5     C29     1.385   .     A
C5     C6      1.393   .     A
C5     H7      1.081   .     S
C6     C30     1.430   .     A
C6     C21     1.421   5_464 A
C8     N9      1.298   .     D
C8     H10     1.082   .     S
C8     C19     1.420   5_464 A
N9     Zn33    1.961   .     S
N9     C11     1.459   .     S
C11    H12     1.110   .     S
C11    H13     1.110   .     S
C11    C11     1.544   7_455 S
C14    C15     1.387   .     A
C14    C27     1.387   6_644 A
C14    H16     1.082   1_545 S
C15    H17     1.081   .     S
C15    C28     1.395   6_644 A
H16    C14     1.082   1_565 S
C18    C19     1.388   .     A
C18    H20     1.081   .     S
C18    C29     1.461   5_565 S
C19    C8      1.420   5_565 A
C19    C30     1.428   5_565 A
C21    N22     1.298   .     D
C21    H23     1.083   .     S
C21    C6      1.421   5_565 A
N22    Zn34    1.960   .     S
N22    C24     1.459   .     S
C24    H25     1.110   .     S
C24    H26     1.110   .     S
C24    C24     1.544   8_666 S
C27    Si32    1.849   .     S
C27    C14     1.387   6_655 A
C28    C15     1.395   6_655 A
C28    C29     1.478   3_566 S
C29    C18     1.461   5_464 S
C29    C28     1.478   4_656 S
C30    O31     1.386   .     S
C30    C19     1.428   5_464 A
O31    Zn33    1.944   .     S
O31    Zn34    1.942   4_656 S
Si32   C27     1.849   2_665 S
Si32   C27     1.849   3_566 S
Si32   C27     1.849   4_656 S
Zn33   N9      1.961   7_455 S
Zn33   O31     1.944   7_455 S
Zn33   Zn34    2.698   4_656 S
Zn34   N22     1.960   8_666 S
Zn34   O31     1.942   3_566 S
Zn34   O31     1.942   5_565 S
Zn34   Zn33    2.698   3_566 S
