data_dAgAg02-ch3
_audit_creation_date              2025-09-02
_audit_creation_method            'Materials Studio'
_symmetry_space_group_name_H-M    'P-4N2'
_symmetry_Int_Tables_number       118
_symmetry_cell_setting            tetragonal
loop_
_symmetry_equiv_pos_as_xyz
  x,y,z
  -x,-y,z
  y,-x,-z
  -y,x,-z
  x+1/2,-y+1/2,z+1/2
  -x+1/2,y+1/2,z+1/2
  y+1/2,x+1/2,-z+1/2
  -y+1/2,-x+1/2,-z+1/2
_cell_length_a                    31.8375
_cell_length_b                    31.8375
_cell_length_c                    32.2950
_cell_angle_alpha                 90.0000
_cell_angle_beta                  90.0000
_cell_angle_gamma                 90.0000
loop_
_atom_site_label
_atom_site_type_symbol
_atom_site_fract_x
_atom_site_fract_y
_atom_site_fract_z
_atom_site_U_iso_or_equiv
_atom_site_adp_type
_atom_site_occupancy
C1     C     0.51384   0.55952   0.56247   0.00000  Uiso   1.00
C2     C     0.53804   0.58364   0.58913   0.00000  Uiso   1.00
H3     H     0.47995   0.56143   0.56377   0.00000  Uiso   1.00
H4     H     0.52296   0.60443   0.61107   0.00000  Uiso   1.00
C5     C     0.36245   0.68891   0.31812   0.00000  Uiso   1.00
C6     C     0.33947   0.71303   0.29042   0.00000  Uiso   1.00
H7     H     0.39250   0.70023   0.32911   0.00000  Uiso   1.00
C8     C     0.24511   0.63693   0.27632   0.00000  Uiso   1.00
N9     N     0.21310   0.65732   0.26198   0.00000  Uiso   1.00
H10    H     0.24143   0.60364   0.28167   0.00000  Uiso   1.00
C11    C     0.17280   0.63847   0.25115   0.00000  Uiso   1.00
H12    H     0.16390   0.61454   0.27457   0.00000  Uiso   1.00
H13    H     0.17568   0.62308   0.22045   0.00000  Uiso   1.00
C14    C     0.92344   0.03000   0.03299   0.00000  Uiso   1.00
C15    C     0.89920   0.05410   0.05969   0.00000  Uiso   1.00
H16    H     0.90831   1.00885   0.01149   0.00000  Uiso   1.00
H17    H     0.86531   0.05179   0.05870   0.00000  Uiso   1.00
C18    C     0.80977   0.86520   0.81820   0.00000  Uiso   1.00
C19    C     0.78518   0.84234   0.79005   0.00000  Uiso   1.00
C20    C     0.79524   0.90707   0.83398   0.00000  Uiso   1.00
C21    C     0.86043   0.74689   0.77775   0.00000  Uiso   1.00
N22    N     0.84041   0.71495   0.76275   0.00000  Uiso   1.00
H23    H     0.89355   0.74340   0.78450   0.00000  Uiso   1.00
C24    C     0.85953   0.67471   0.75211   0.00000  Uiso   1.00
H25    H     0.88240   0.66541   0.77638   0.00000  Uiso   1.00
H26    H     0.87626   0.67799   0.72214   0.00000  Uiso   1.00
C27    C     0.53301   0.53281   0.53421   0.00000  Uiso   1.00
C28    C     0.58155   0.58094   0.58780   0.00000  Uiso   1.00
C29    C     0.60570   0.39356   0.38426   0.00000  Uiso   1.00
C30    C     0.62676   0.37321   0.36055   0.00000  Uiso   1.00
C31    C     0.34794   0.65057   0.33205   0.00000  Uiso   1.00
C32    C     0.30008   0.69756   0.27609   0.00000  Uiso   1.00
O33    O     0.27820   0.71949   0.24562   0.00000  Uiso   1.00
H34    H     0.76400   0.90368   0.84885   0.00000  Uiso   1.00
H35    H     0.79331   0.92976   0.80797   0.00000  Uiso   1.00
H36    H     0.81746   0.91972   0.85726   0.00000  Uiso   1.00
Si37   Si    0.50000   0.50000   0.50000   0.00000  Uiso   1.00
Ag38   Ag    0.21725   0.71725   0.25000   0.00000  Uiso   1.00
Ag39   Ag    0.78057   0.71943   0.75000   0.00000  Uiso   1.00
loop_
_geom_bond_atom_site_label_1
_geom_bond_atom_site_label_2
_geom_bond_distance
_geom_bond_site_symmetry_2
_ccdc_geom_bond_type
C1     C27     1.389   .     A
C1     C2      1.387   .     A
C1     H3      1.082   .     S
C2     C28     1.389   .     A
C2     H4      1.082   .     S
C5     C31     1.381   .     A
C5     C6      1.387   .     A
C5     H7      1.082   .     S
C6     C32     1.424   .     A
C6     C21     1.497   5_464 S
C8     N9      1.294   .     D
C8     H10     1.080   .     S
C8     C19     1.503   5_464 S
N9     Ag38    1.951   .     S
N9     C11     1.459   .     S
C11    H12     1.110   .     S
C11    H13     1.110   .     S
C11    C11     1.547   7_455 S
C14    C15     1.389   .     A
C14    C27     1.390   6_644 A
C14    H16     1.081   1_545 S
C15    H17     1.082   .     S
C15    C28     1.389   6_644 A
H16    C14     1.081   1_565 S
C18    C19     1.403   .     A
C18    C20     1.500   .     S
C18    C31     1.389   5_565 A
C19    C8      1.503   5_565 S
C19    C32     1.429   5_565 A
C20    H34     1.110   .     S
C20    H35     1.110   .     S
C20    H36     1.108   .     S
C21    N22     1.294   .     D
C21    H23     1.082   .     S
C21    C6      1.497   5_565 S
N22    Ag39    1.954   .     S
N22    C24     1.459   .     S
C24    H25     1.110   .     S
C24    H26     1.110   .     S
C24    C24     1.548   8_666 S
C27    Si37    1.848   .     S
C27    C14     1.390   6_655 A
C28    C15     1.389   6_655 A
C28    C29     1.437   4_656 S
C29    C30     1.206   .     T
C29    C28     1.437   3_566 S
C30    C31     1.439   2_665 S
C31    C18     1.389   5_464 A
C31    C30     1.439   2_665 S
C32    O33     1.393   .     S
C32    C19     1.429   5_464 A
O33    Ag38    1.947   .     S
O33    Ag39    1.951   4_656 S
Si37   C27     1.848   2_665 S
Si37   C27     1.848   3_566 S
Si37   C27     1.848   4_656 S
Ag38   N9      1.951   7_455 S
Ag38   O33     1.947   7_455 S
Ag39   N22     1.954   8_666 S
Ag39   O33     1.951   3_566 S
Ag39   O33     1.951   5_565 S
