data_dAgAg04-f
_audit_creation_date              2025-09-02
_audit_creation_method            'Materials Studio'
_symmetry_space_group_name_H-M    'P-4N2'
_symmetry_Int_Tables_number       118
_symmetry_cell_setting            tetragonal
loop_
_symmetry_equiv_pos_as_xyz
  x,y,z
  -x,-y,z
  y,-x,-z
  -y,x,-z
  x+1/2,-y+1/2,z+1/2
  -x+1/2,y+1/2,z+1/2
  y+1/2,x+1/2,-z+1/2
  -y+1/2,-x+1/2,-z+1/2
_cell_length_a                    24.2999
_cell_length_b                    24.2999
_cell_length_c                    29.0693
_cell_angle_alpha                 90.0000
_cell_angle_beta                  90.0000
_cell_angle_gamma                 90.0000
loop_
_atom_site_label
_atom_site_type_symbol
_atom_site_fract_x
_atom_site_fract_y
_atom_site_fract_z
_atom_site_U_iso_or_equiv
_atom_site_adp_type
_atom_site_occupancy
C1     C     0.53775   0.60237   0.53324   0.00000  Uiso   1.00
C2     C     0.56914   0.63623   0.56130   0.00000  Uiso   1.00
H3     H     0.51095   0.62047   0.50773   0.00000  Uiso   1.00
H4     H     0.56699   0.68029   0.55656   0.00000  Uiso   1.00
C5     C     0.36824   0.68987   0.36206   0.00000  Uiso   1.00
C6     C     0.33590   0.72373   0.33470   0.00000  Uiso   1.00
H7     H     0.40802   0.70460   0.37332   0.00000  Uiso   1.00
C8     C     0.20977   0.62713   0.32347   0.00000  Uiso   1.00
N9     N     0.18050   0.64154   0.28820   0.00000  Uiso   1.00
H10    H     0.19600   0.59252   0.34387   0.00000  Uiso   1.00
C11    C     0.12859   0.61578   0.27535   0.00000  Uiso   1.00
H12    H     0.09531   0.63274   0.29732   0.00000  Uiso   1.00
H13    H     0.13104   0.57057   0.28044   0.00000  Uiso   1.00
C14    C     0.92455   0.02286   0.07064   0.00000  Uiso   1.00
C15    C     0.89322   0.05661   0.09885   0.00000  Uiso   1.00
H16    H     0.92218   0.97864   0.07437   0.00000  Uiso   1.00
H17    H     0.86697   0.03813   0.12461   0.00000  Uiso   1.00
C18    C     0.79885   0.88046   0.86202   0.00000  Uiso   1.00
C19    C     0.76460   0.84806   0.83474   0.00000  Uiso   1.00
H20    F     0.78199   0.93173   0.87400   0.00000  Uiso   1.00
C21    C     0.86066   0.72147   0.82360   0.00000  Uiso   1.00
N22    N     0.84635   0.69225   0.78828   0.00000  Uiso   1.00
H23    H     0.89531   0.70784   0.84403   0.00000  Uiso   1.00
C24    C     0.87223   0.64042   0.77537   0.00000  Uiso   1.00
H25    H     0.85530   0.60704   0.79725   0.00000  Uiso   1.00
H26    H     0.91743   0.64295   0.78054   0.00000  Uiso   1.00
C27    C     0.54114   0.54561   0.53756   0.00000  Uiso   1.00
C28    C     0.60394   0.61370   0.59447   0.00000  Uiso   1.00
C29    C     0.35042   0.63819   0.37597   0.00000  Uiso   1.00
C30    C     0.28306   0.70496   0.32106   0.00000  Uiso   1.00
O31    O     0.24767   0.74026   0.29797   0.00000  Uiso   1.00
Si32   Si    0.50000   0.50000   0.50000   0.00000  Uiso   1.00
Zn33   Ag    0.20431   0.70431   0.25000   0.00000  Uiso   1.00
Zn34   Ag    0.78368   0.71632   0.75000   0.00000  Uiso   1.00
loop_
_geom_bond_atom_site_label_1
_geom_bond_atom_site_label_2
_geom_bond_distance
_geom_bond_site_symmetry_2
_ccdc_geom_bond_type
C1     C27     1.388   .     A
C1     C2      1.387   .     A
C1     H3      1.080   .     S
C2     C28     1.395   .     A
C2     H4      1.081   .     S
C5     C29     1.389   .     A
C5     C6      1.388   .     A
C5     H7      1.082   .     S
C6     C30     1.419   .     A
C6     C21     1.496   5_464 S
C8     N9      1.296   .     D
C8     H10     1.082   .     S
C8     C19     1.499   5_464 S
N9     Zn33    1.973   .     S
N9     C11     1.457   .     S
C11    H12     1.110   .     S
C11    H13     1.110   .     S
C11    C11     1.538   7_455 S
C14    C15     1.387   .     A
C14    C27     1.387   6_644 A
C14    H16     1.082   1_545 S
C15    H17     1.081   .     S
C15    C28     1.395   6_644 A
H16    C14     1.082   1_565 S
C18    C19     1.393   .     A
C18    H20     1.357   .     S
C18    C29     1.393   5_565 A
C19    C8      1.499   5_565 S
C19    C30     1.421   5_565 A
C21    N22     1.296   .     D
C21    H23     1.082   .     S
C21    C6      1.496   5_565 S
N22    Zn34    1.974   .     S
N22    C24     1.457   .     S
C24    H25     1.110   .     S
C24    H26     1.110   .     S
C24    C24     1.538   8_666 S
C27    Si32    1.849   .     S
C27    C14     1.387   6_655 A
C28    C15     1.395   6_655 A
C28    C29     1.480   3_566 S
C29    C18     1.393   5_464 A
C29    C28     1.480   4_656 S
C30    O31     1.388   .     S
C30    C19     1.421   5_464 A
O31    Zn33    1.954   .     S
O31    Zn34    1.955   4_656 S
Si32   C27     1.849   2_665 S
Si32   C27     1.849   3_566 S
Si32   C27     1.849   4_656 S
Zn33   N9      1.973   7_455 S
Zn33   O31     1.954   7_455 S
Zn33   Zn34    2.728   4_656 S
Zn34   N22     1.974   8_666 S
Zn34   O31     1.955   3_566 S
Zn34   O31     1.955   5_565 S
Zn34   Zn33    2.728   3_566 S
