data_dAgAg04-nh2
_audit_creation_date              2025-09-02
_audit_creation_method            'Materials Studio'
_symmetry_space_group_name_H-M    'P-4N2'
_symmetry_Int_Tables_number       118
_symmetry_cell_setting            tetragonal
loop_
_symmetry_equiv_pos_as_xyz
  x,y,z
  -x,-y,z
  y,-x,-z
  -y,x,-z
  x+1/2,-y+1/2,z+1/2
  -x+1/2,y+1/2,z+1/2
  y+1/2,x+1/2,-z+1/2
  -y+1/2,-x+1/2,-z+1/2
_cell_length_a                    25.0246
_cell_length_b                    25.0246
_cell_length_c                    27.8585
_cell_angle_alpha                 90.0000
_cell_angle_beta                  90.0000
_cell_angle_gamma                 90.0000
loop_
_atom_site_label
_atom_site_type_symbol
_atom_site_fract_x
_atom_site_fract_y
_atom_site_fract_z
_atom_site_U_iso_or_equiv
_atom_site_adp_type
_atom_site_occupancy
C1     C     0.53909   0.60017   0.52997   0.00000  Uiso   1.00
C2     C     0.56893   0.63417   0.55870   0.00000  Uiso   1.00
H3     H     0.51645   0.61634   0.50032   0.00000  Uiso   1.00
H4     H     0.56983   0.67644   0.55057   0.00000  Uiso   1.00
C5     C     0.36528   0.68230   0.36081   0.00000  Uiso   1.00
C6     C     0.33254   0.71595   0.33445   0.00000  Uiso   1.00
H7     H     0.40382   0.69675   0.37269   0.00000  Uiso   1.00
C8     C     0.20968   0.62270   0.32356   0.00000  Uiso   1.00
N9     N     0.17977   0.63815   0.28825   0.00000  Uiso   1.00
H10    H     0.19575   0.58977   0.34528   0.00000  Uiso   1.00
C11    C     0.12845   0.61426   0.27608   0.00000  Uiso   1.00
H12    H     0.09736   0.63062   0.30040   0.00000  Uiso   1.00
H13    H     0.13034   0.57018   0.28032   0.00000  Uiso   1.00
C14    C     0.93150   0.02522   0.07680   0.00000  Uiso   1.00
C15    C     0.90206   0.05925   0.10593   0.00000  Uiso   1.00
H16    H     0.93151   0.98269   0.08376   0.00000  Uiso   1.00
H17    H     0.87937   0.04290   0.13554   0.00000  Uiso   1.00
C18    C     0.80037   0.88862   0.85718   0.00000  Uiso   1.00
C19    C     0.76433   0.85496   0.83321   0.00000  Uiso   1.00
N20    N     0.78809   0.94409   0.86336   0.00000  Uiso   1.00
C21    C     0.85546   0.73001   0.82426   0.00000  Uiso   1.00
N22    N     0.83994   0.70021   0.78887   0.00000  Uiso   1.00
H23    H     0.88983   0.71742   0.84495   0.00000  Uiso   1.00
C24    C     0.86435   0.64927   0.77620   0.00000  Uiso   1.00
H25    H     0.84809   0.61769   0.80005   0.00000  Uiso   1.00
H26    H     0.90837   0.65146   0.78075   0.00000  Uiso   1.00
C27    C     0.53899   0.54559   0.53877   0.00000  Uiso   1.00
C28    C     0.59804   0.61411   0.59735   0.00000  Uiso   1.00
C29    C     0.34980   0.63079   0.37271   0.00000  Uiso   1.00
C30    C     0.28092   0.69779   0.32122   0.00000  Uiso   1.00
O31    O     0.24527   0.73311   0.29992   0.00000  Uiso   1.00
H32    H     0.75343   0.96086   0.84917   0.00000  Uiso   1.00
H33    H     0.81675   0.97043   0.87667   0.00000  Uiso   1.00
Si34   Si    0.50000   0.50000   0.50000   0.00000  Uiso   1.00
Ag35   Ag    0.20090   0.70090   0.25000   0.00000  Uiso   1.00
Ag36   Ag    0.77772   0.72228   0.75000   0.00000  Uiso   1.00
loop_
_geom_bond_atom_site_label_1
_geom_bond_atom_site_label_2
_geom_bond_distance
_geom_bond_site_symmetry_2
_ccdc_geom_bond_type
C1     C27     1.388   .     A
C1     C2      1.386   .     A
C1     H3      1.080   .     S
C2     C28     1.394   .     A
C2     H4      1.082   .     S
C5     C29     1.386   .     A
C5     C6      1.386   .     A
C5     H7      1.082   .     S
C6     C30     1.418   .     A
C6     C21     1.496   5_464 S
C8     N9      1.295   .     D
C8     H10     1.080   .     S
C8     C19     1.502   5_464 S
N9     Ag35    1.970   .     S
N9     C11     1.457   .     S
C11    H12     1.110   .     S
C11    H13     1.110   .     S
C11    C11     1.537   7_455 S
C14    C15     1.388   .     A
C14    C27     1.388   6_644 A
C14    H16     1.082   1_545 S
C15    H17     1.082   .     S
C15    C28     1.394   6_644 A
H16    C14     1.082   1_565 S
C18    C19     1.403   .     A
C18    N20     1.432   .     S
C18    C29     1.398   5_565 A
C19    C8      1.502   5_565 S
C19    C30     1.423   5_565 A
N20    H32     1.042   .     S
N20    H33     1.042   .     S
C21    N22     1.296   .     D
C21    H23     1.082   .     S
C21    C6      1.496   5_565 S
N22    Ag36    1.975   .     S
N22    C24     1.457   .     S
C24    H25     1.110   .     S
C24    H26     1.110   .     S
C24    C24     1.537   8_666 S
C27    Si34    1.849   .     S
C27    C14     1.388   6_655 A
C28    C15     1.394   6_655 A
C28    C29     1.478   3_566 S
C29    C18     1.398   5_464 A
C29    C28     1.478   4_656 S
C30    O31     1.389   .     S
C30    C19     1.423   5_464 A
O31    Ag35    1.954   .     S
O31    Ag36    1.960   4_656 S
Si34   C27     1.849   2_665 S
Si34   C27     1.849   3_566 S
Si34   C27     1.849   4_656 S
Ag35   N9      1.970   7_455 S
Ag35   O31     1.954   7_455 S
Ag35   Ag36    2.719   4_656 S
Ag36   N22     1.975   8_666 S
Ag36   O31     1.960   3_566 S
Ag36   O31     1.960   5_565 S
Ag36   Ag35    2.719   3_566 S
