data_dAgAg09-oh
_audit_creation_date              2025-09-02
_audit_creation_method            'Materials Studio'
_symmetry_space_group_name_H-M    'P-4N2'
_symmetry_Int_Tables_number       118
_symmetry_cell_setting            tetragonal
loop_
_symmetry_equiv_pos_as_xyz
  x,y,z
  -x,-y,z
  y,-x,-z
  -y,x,-z
  x+1/2,-y+1/2,z+1/2
  -x+1/2,y+1/2,z+1/2
  y+1/2,x+1/2,-z+1/2
  -y+1/2,-x+1/2,-z+1/2
_cell_length_a                    29.1717
_cell_length_b                    29.1717
_cell_length_c                    26.5843
_cell_angle_alpha                 90.0000
_cell_angle_beta                  90.0000
_cell_angle_gamma                 90.0000
loop_
_atom_site_label
_atom_site_type_symbol
_atom_site_fract_x
_atom_site_fract_y
_atom_site_fract_z
_atom_site_U_iso_or_equiv
_atom_site_adp_type
_atom_site_occupancy
C1     C     0.55463   0.39734   0.43925   0.00000  Uiso   1.00
C2     C     0.58199   0.37066   0.40810   0.00000  Uiso   1.00
H3     H     0.53057   0.38110   0.46457   0.00000  Uiso   1.00
H4     H     0.57920   0.33375   0.41001   0.00000  Uiso   1.00
C5     C     0.62601   0.32106   0.32416   0.00000  Uiso   1.00
C6     C     0.65234   0.29361   0.29286   0.00000  Uiso   1.00
H7     H     0.59227   0.30941   0.33509   0.00000  Uiso   1.00
C8     C     0.75591   0.37582   0.27753   0.00000  Uiso   1.00
N9     N     0.79162   0.35321   0.26270   0.00000  Uiso   1.00
H10    H     0.75891   0.41259   0.28097   0.00000  Uiso   1.00
C11    C     0.83591   0.37344   0.25007   0.00000  Uiso   1.00
H12    H     0.84486   0.40044   0.27781   0.00000  Uiso   1.00
H13    H     0.83370   0.38903   0.21207   0.00000  Uiso   1.00
C14    C     0.08881   0.03449   0.90521   0.00000  Uiso   1.00
C15    C     0.11636   0.06108   0.87419   0.00000  Uiso   1.00
H16    H     0.09124  -0.00249   0.90376   0.00000  Uiso   1.00
H17    H     0.13952   0.04428   0.84834   0.00000  Uiso   1.00
C18    C     0.18485   0.12155   0.82728   0.00000  Uiso   1.00
C19    C     0.21223   0.14679   0.79405   0.00000  Uiso   1.00
H20    O     0.20046   0.08082   0.84861   0.00000  Uiso   1.00
C21    C     0.12991   0.25047   0.77788   0.00000  Uiso   1.00
N22    N     0.15243   0.28599   0.76238   0.00000  Uiso   1.00
H23    H     0.09346   0.25395   0.78440   0.00000  Uiso   1.00
C24    C     0.13210   0.33040   0.75052   0.00000  Uiso   1.00
H25    H     0.10573   0.33932   0.77900   0.00000  Uiso   1.00
H26    H     0.11564   0.32837   0.71294   0.00000  Uiso   1.00
C27    C     0.55790   0.44476   0.43766   0.00000  Uiso   1.00
C28    C     0.61309   0.39122   0.37520   0.00000  Uiso   1.00
C29    C     0.64178   0.36301   0.34145   0.00000  Uiso   1.00
C30    C     0.69610   0.30969   0.27710   0.00000  Uiso   1.00
O31    O     0.72116   0.28477   0.24188   0.00000  Uiso   1.00
C32    C     0.47218   0.52657   0.47017   0.00000  Uiso   1.00
O33    O     0.49875   0.55558   0.49996   0.00000  Uiso   1.00
H      H     0.23445   0.07575   0.84435   0.00000  Uiso   1.00
Zn34   Ag    0.78745   0.28745   0.25000   0.00000  Uiso   1.00
Zn35   Ag    0.21835   0.28165   0.75000   0.00000  Uiso   1.00
O36    O     0.50000   0.50000   0.43906   0.00000  Uiso   1.00
loop_
_geom_bond_atom_site_label_1
_geom_bond_atom_site_label_2
_geom_bond_distance
_geom_bond_site_symmetry_2
_ccdc_geom_bond_type
C1     C27     1.387   .     A
C1     C2      1.389   .     A
C1     H3      1.082   .     S
C2     C28     1.396   .     A
C2     H4      1.081   .     S
C5     C29     1.386   .     A
C5     C6      1.387   .     A
C5     H7      1.081   .     S
C6     C30     1.423   .     A
C6     C21     1.497   5_554 S
C8     N9      1.294   .     D
C8     H10     1.080   .     S
C8     C19     1.501   5_554 S
N9     Zn34    1.952   .     S
N9     C11     1.459   .     S
C11    H12     1.110   .     S
C11    H13     1.110   .     S
C11    C11     1.548   7_545 S
C14    C15     1.388   .     A
C14    H16     1.082   .     S
C14    C27     1.387   5_455 A
C15    H17     1.081   .     S
C15    C28     1.395   5_455 A
C18    C19     1.400   .     A
C18    H20     1.393   .     S
C18    C29     1.387   5_455 A
C19    C8      1.501   5_455 S
C19    C30     1.427   5_455 A
H20    H       1.009   .     S
C21    N22     1.294   .     D
C21    H23     1.082   .     S
C21    C6      1.497   5_455 S
N22    Zn35    1.955   .     S
N22    C24     1.459   .     S
C24    H25     1.110   .     S
C24    H26     1.110   .     S
C24    C24     1.547   8_556 S
C27    C14     1.387   5_554 A
C27    C32     1.489   2_665 S
C28    C29     1.477   .     S
C28    C15     1.395   5_554 A
C29    C18     1.387   5_554 A
C30    O31     1.393   .     S
C30    C19     1.427   5_554 A
O31    Zn34    1.947   .     S
O31    Zn35    1.951   4_656 S
C32    O36     1.394   .     S
C32    C27     1.489   2_665 S
C32    O33     1.395   4_656 S
O33    C32     1.395   3_566 S
Zn34   N9      1.952   7_545 S
Zn34   O31     1.947   7_545 S
Zn35   N22     1.955   8_556 S
Zn35   O31     1.951   3_566 S
Zn35   O31     1.951   5_455 S
O36    C32     1.394   2_665 S
