data_pAg11
_audit_creation_date              2025-09-02
_audit_creation_method            'Materials Studio'
_symmetry_space_group_name_H-M    'R3'
_symmetry_Int_Tables_number       146
_symmetry_cell_setting            trigonal
loop_
_symmetry_equiv_pos_as_xyz
  x,y,z
  -y,x-y,z
  -x+y,-x,z
  x+2/3,y+1/3,z+1/3
  -y+2/3,x-y+1/3,z+1/3
  -x+y+2/3,-x+1/3,z+1/3
  x+1/3,y+2/3,z+2/3
  -y+1/3,x-y+2/3,z+2/3
  -x+y+1/3,-x+2/3,z+2/3
_cell_length_a                    30.5493
_cell_length_b                    30.5493
_cell_length_c                    39.9253
_cell_angle_alpha                 90.0000
_cell_angle_beta                  90.0000
_cell_angle_gamma                 120.0000
loop_
_atom_site_label
_atom_site_type_symbol
_atom_site_fract_x
_atom_site_fract_y
_atom_site_fract_z
_atom_site_U_iso_or_equiv
_atom_site_adp_type
_atom_site_occupancy
C1     C     0.35596   0.72240  -0.31704   0.05000  Uiso   1.00
C2     C     0.36766   0.75073  -0.34911   0.05000  Uiso   1.00
C3     C     0.32853   0.60014  -0.29729   0.05000  Uiso   1.00
C4     C     0.27852   0.63378  -0.37674   0.05000  Uiso   1.00
C5     C     0.40568   0.68743  -0.29759   0.05000  Uiso   1.00
C6     C     0.39040   0.80032  -0.35918   0.05000  Uiso   1.00
C7     C     0.32631   0.56008  -0.28011   0.05000  Uiso   1.00
C8     C     0.24732   0.61693  -0.40429   0.05000  Uiso   1.00
C9     C     0.44976   0.69964  -0.28097   0.05000  Uiso   1.00
H10    H     0.40525   0.83319  -0.34311   0.06000  Uiso   1.00
H11    H     0.35708   0.55272  -0.27619   0.06000  Uiso   1.00
H12    H     0.25875   0.62482  -0.43025   0.06000  Uiso   1.00
H13    H     0.46568   0.67536  -0.27720   0.06000  Uiso   1.00
N14    N     0.39116   0.80112  -0.39319   0.05000  Uiso   1.00
N15    N     0.27776   0.52964  -0.27010   0.05000  Uiso   1.00
C16    C     0.45060   0.60689  -0.44552   0.05000  Uiso   1.00
C17    C     0.47435   0.58769  -0.46580   0.05000  Uiso   1.00
C18    C     0.47922   0.54680  -0.45370   0.05000  Uiso   1.00
C19    C     0.46225   0.52861  -0.42159   0.05000  Uiso   1.00
C20    C     0.43972   0.54889  -0.40166   0.05000  Uiso   1.00
C21    C     0.43329   0.58782  -0.41368   0.05000  Uiso   1.00
O22    O     0.50159   0.52358  -0.47118   0.05000  Uiso   1.00
C23    C     0.50400   0.44435  -0.54923   0.05000  Uiso   1.00
C24    C     0.49260   0.39442  -0.54600   0.05000  Uiso   1.00
C25    C     0.54212   0.47631  -0.57200   0.05000  Uiso   1.00
C26    C     0.56872   0.45724  -0.58929   0.05000  Uiso   1.00
C27    C     0.55758   0.40758  -0.58524   0.05000  Uiso   1.00
C28    C     0.51893   0.37604  -0.56383   0.05000  Uiso   1.00
N29    N     0.54100   0.55503  -0.56435   0.05000  Uiso   1.00
C30    C     0.55447   0.52798  -0.58157   0.05000  Uiso   1.00
N31    N     0.51212   0.59954  -0.52143   0.05000  Uiso   1.00
C32    C     0.52826   0.62631  -0.55321   0.05000  Uiso   1.00
C33    C     0.55867   0.60760  -0.57280   0.05000  Uiso   1.00
C34    C     0.49548   0.61554  -0.49742   0.05000  Uiso   1.00
O35    O     0.47500   0.45863  -0.53017   0.05000  Uiso   1.00
H36    H     0.44685   0.63833  -0.45426   0.06000  Uiso   1.00
H37    H     0.42640   0.53368  -0.37694   0.06000  Uiso   1.00
H38    H     0.59776   0.48103  -0.60693   0.06000  Uiso   1.00
H39    H     0.50989   0.33731  -0.56050   0.06000  Uiso   1.00
H40    H     0.57757   0.54446  -0.60362   0.06000  Uiso   1.00
H41    H     0.55172   0.66764  -0.54881   0.06000  Uiso   1.00
H42    H     0.59917   0.63070  -0.56583   0.06000  Uiso   1.00
H43    H     0.49574   0.65083  -0.50080   0.06000  Uiso   1.00
Ag44   Ag    0.50603   0.53133   0.47977   0.00000  Uiso   1.00
H45    H     0.49427   0.61853  -0.56793   0.00000  Uiso   1.00
H46    H     0.55444   0.61142  -0.60010   0.00000  Uiso   1.00
H47    H     0.46661   0.49786  -0.41208   0.00000  Uiso   1.00
H48    H     0.46286   0.36961  -0.52905   0.00000  Uiso   1.00
C49    C     0.33333   0.66667  -0.33019   0.05000  Uiso   1.00
C50    C     0.33333   0.66667  -0.36965   0.05000  Uiso   1.00
loop_
_geom_bond_atom_site_label_1
_geom_bond_atom_site_label_2
_geom_bond_distance
_geom_bond_site_symmetry_2
_ccdc_geom_bond_type
C1     C49     1.573   .     S
C1     C2      1.485   .     S
C1     C3      1.486   2_665 S
C1     C5      1.486   2_665 S
C2     C4      1.349   3_565 S
C2     C6      1.374   .     D
C3     C1      1.486   3_565 S
C3     C5      1.349   3_565 S
C3     C7      1.375   .     D
C4     C50     1.487   .     S
C4     C2      1.349   2_665 S
C4     C8      1.376   .     D
C5     C1      1.486   3_565 S
C5     C3      1.349   2_665 S
C5     C9      1.375   .     D
C6     H10     1.082   .     S
C6     N14     1.358   .     S
C7     H11     1.082   .     S
C7     N15     1.358   .     S
C8     H12     1.082   .     S
C8     N14     1.359   2_665 S
C9     H13     1.082   .     S
C9     N15     1.359   2_665 S
N14    C8      1.359   3_565 S
N14    C21     1.431   2_665 S
N15    C9      1.359   3_565 S
N15    C27     1.431   5     S
C16    C17     1.397   .     S
C16    C21     1.388   .     D
C16    H36     1.081   .     S
C17    C18     1.415   .     D
C17    C34     1.478   .     S
C18    C19     1.390   .     S
C18    O22     1.393   .     S
C19    C20     1.385   .     D
C19    H47     1.081   .     S
C20    C21     1.384   .     S
C20    H37     1.080   .     S
C21    N14     1.431   3_565 S
O22    Ag44    1.969   1_554 S
C23    C24     1.390   .     S
C23    C25     1.414   .     D
C23    O35     1.393   .     S
C24    C28     1.386   .     D
C24    H48     1.081   .     S
C25    C26     1.396   .     S
C25    C30     1.478   .     S
C26    C27     1.388   .     D
C26    H38     1.080   .     S
C27    N15     1.431   9_554 S
C27    C28     1.384   .     S
C28    H39     1.080   .     S
N29    C30     1.290   .     D
N29    C33     1.455   .     S
N29    Ag44    1.999   1_554 S
C30    H40     1.082   .     S
N31    C32     1.456   .     S
N31    C34     1.290   .     D
N31    Ag44    1.998   1_554 S
C32    C33     1.527   .     S
C32    H41     1.111   .     S
C32    H45     1.110   .     S
C33    H42     1.110   .     S
C33    H46     1.111   .     S
C34    H43     1.082   .     S
O35    Ag44    1.971   1_554 S
Ag44   N31     1.998   1_556 S
Ag44   O22     1.969   1_556 S
Ag44   N29     1.999   1_556 S
Ag44   O35     1.971   1_556 S
C49    C1      1.573   2_665 S
C49    C1      1.573   3_565 S
C49    C50     1.575   .     S
C50    C4      1.487   2_665 S
C50    C4      1.487   3_565 S
