data_pAg11-oh
_audit_creation_date              2025-09-02
_audit_creation_method            'Materials Studio'
_symmetry_space_group_name_H-M    'R3'
_symmetry_Int_Tables_number       146
_symmetry_cell_setting            trigonal
loop_
_symmetry_equiv_pos_as_xyz
  x,y,z
  -y,x-y,z
  -x+y,-x,z
  x+2/3,y+1/3,z+1/3
  -y+2/3,x-y+1/3,z+1/3
  -x+y+2/3,-x+1/3,z+1/3
  x+1/3,y+2/3,z+2/3
  -y+1/3,x-y+2/3,z+2/3
  -x+y+1/3,-x+2/3,z+2/3
_cell_length_a                    30.4488
_cell_length_b                    30.4488
_cell_length_c                    40.0782
_cell_angle_alpha                 90.0000
_cell_angle_beta                  90.0000
_cell_angle_gamma                 120.0000
loop_
_atom_site_label
_atom_site_type_symbol
_atom_site_fract_x
_atom_site_fract_y
_atom_site_fract_z
_atom_site_U_iso_or_equiv
_atom_site_adp_type
_atom_site_occupancy
C1     C     0.35629   0.72261  -0.31840   0.05000  Uiso   1.00
C2     C     0.36815   0.75105  -0.35034   0.05000  Uiso   1.00
C3     C     0.32814   0.59976  -0.29873   0.05000  Uiso   1.00
C4     C     0.27830   0.63389  -0.37787   0.05000  Uiso   1.00
C5     C     0.40583   0.68714  -0.29903   0.05000  Uiso   1.00
C6     C     0.39041   0.80077  -0.36037   0.05000  Uiso   1.00
C7     C     0.32576   0.55965  -0.28140   0.05000  Uiso   1.00
C8     C     0.24705   0.61641  -0.40532   0.05000  Uiso   1.00
C9     C     0.44982   0.69905  -0.28227   0.05000  Uiso   1.00
H10    H     0.40500   0.83372  -0.34436   0.06000  Uiso   1.00
H11    H     0.35653   0.55215  -0.27738   0.06000  Uiso   1.00
H12    H     0.25854   0.62390  -0.43119   0.06000  Uiso   1.00
H13    H     0.46550   0.67447  -0.27841   0.06000  Uiso   1.00
N14    N     0.39077   0.80155  -0.39426   0.05000  Uiso   1.00
N15    N     0.27704   0.52940  -0.27134   0.05000  Uiso   1.00
C16    C     0.45200   0.60811  -0.44640   0.05000  Uiso   1.00
C17    C     0.47632   0.58942  -0.46660   0.05000  Uiso   1.00
C18    C     0.48208   0.54891  -0.45454   0.05000  Uiso   1.00
C19    C     0.46542   0.53054  -0.42246   0.05000  Uiso   1.00
C20    C     0.44225   0.55039  -0.40269   0.05000  Uiso   1.00
C21    C     0.43489   0.58887  -0.41467   0.05000  Uiso   1.00
O22    O     0.50512   0.52631  -0.47204   0.05000  Uiso   1.00
C23    C     0.50525   0.44561  -0.54993   0.05000  Uiso   1.00
C24    C     0.49376   0.39551  -0.54660   0.05000  Uiso   1.00
C25    C     0.54306   0.47751  -0.57292   0.05000  Uiso   1.00
C26    C     0.56943   0.45828  -0.59038   0.05000  Uiso   1.00
C27    C     0.55831   0.40850  -0.58630   0.05000  Uiso   1.00
C28    C     0.51993   0.37701  -0.56468   0.05000  Uiso   1.00
N29    N     0.54200   0.55651  -0.56524   0.05000  Uiso   1.00
C30    C     0.55520   0.52926  -0.58253   0.05000  Uiso   1.00
N31    N     0.51372   0.60141  -0.52217   0.05000  Uiso   1.00
C32    C     0.52929   0.62805  -0.55394   0.05000  Uiso   1.00
C33    C     0.55947   0.60918  -0.57376   0.05000  Uiso   1.00
C34    C     0.49713   0.61739  -0.49815   0.05000  Uiso   1.00
O35    O     0.47656   0.46013  -0.53068   0.05000  Uiso   1.00
H36    H     0.44757   0.63926  -0.45512   0.06000  Uiso   1.00
H37    H     0.42917   0.53507  -0.37804   0.06000  Uiso   1.00
H38    H     0.59823   0.48201  -0.60819   0.06000  Uiso   1.00
H39    H     0.51104   0.33821  -0.56141   0.06000  Uiso   1.00
H40    H     0.57791   0.54560  -0.60471   0.06000  Uiso   1.00
H41    H     0.55288   0.66954  -0.54971   0.06000  Uiso   1.00
H42    H     0.60024   0.63245  -0.56717   0.06000  Uiso   1.00
H43    H     0.49705   0.65263  -0.50149   0.06000  Uiso   1.00
Ag44   Ag    0.50796   0.53314   0.47904   0.00000  Uiso   1.00
H45    H     0.49491   0.62010  -0.56831   0.00000  Uiso   1.00
H46    H     0.55469   0.61279  -0.60092   0.00000  Uiso   1.00
O47    O     0.47177   0.49148  -0.40997   0.00000  Uiso   1.00
O48    O     0.45572   0.36392  -0.52455   0.00000  Uiso   1.00
H49    H     0.48902   0.48036   0.57318   0.00000  Uiso   1.00
H50    H     0.45108   0.32860   0.47565   0.00000  Uiso   1.00
C51    C     0.33333   0.66667  -0.33150   0.05000  Uiso   1.00
C52    C     0.33333   0.66667  -0.37081   0.05000  Uiso   1.00
loop_
_geom_bond_atom_site_label_1
_geom_bond_atom_site_label_2
_geom_bond_distance
_geom_bond_site_symmetry_2
_ccdc_geom_bond_type
C1     C51     1.573   .     S
C1     C2      1.485   .     S
C1     C3      1.486   2_665 S
C1     C5      1.486   2_665 S
C2     C4      1.349   3_565 S
C2     C6      1.374   .     D
C3     C1      1.486   3_565 S
C3     C5      1.349   3_565 S
C3     C7      1.375   .     D
C4     C52     1.487   .     S
C4     C2      1.349   2_665 S
C4     C8      1.376   .     D
C5     C1      1.486   3_565 S
C5     C3      1.349   2_665 S
C5     C9      1.375   .     D
C6     H10     1.082   .     S
C6     N14     1.358   .     S
C7     H11     1.082   .     S
C7     N15     1.358   .     S
C8     H12     1.082   .     S
C8     N14     1.359   2_665 S
C9     H13     1.082   .     S
C9     N15     1.358   2_665 S
N14    C8      1.359   3_565 S
N14    C21     1.431   2_665 S
N15    C9      1.358   3_565 S
N15    C27     1.431   5     S
C16    C17     1.396   .     S
C16    C21     1.388   .     D
C16    H36     1.081   .     S
C17    C18     1.415   .     D
C17    C34     1.479   .     S
C18    C19     1.393   .     S
C18    O22     1.393   .     S
C19    C20     1.385   .     D
C19    O47     1.390   .     S
C20    C21     1.384   .     S
C20    H37     1.080   .     S
C21    N14     1.431   3_565 S
O22    Ag44    1.969   1_554 S
C23    C24     1.391   .     S
C23    C25     1.414   .     D
C23    O35     1.393   .     S
C24    C28     1.388   .     D
C24    O48     1.390   .     S
C25    C26     1.396   .     S
C25    C30     1.478   .     S
C26    C27     1.388   .     D
C26    H38     1.080   .     S
C27    N15     1.431   9_554 S
C27    C28     1.384   .     S
C28    H39     1.080   .     S
N29    C30     1.290   .     D
N29    C33     1.455   .     S
N29    Ag44    1.998   1_554 S
C30    H40     1.082   .     S
N31    C32     1.456   .     S
N31    C34     1.290   .     D
N31    Ag44    1.997   1_554 S
C32    C33     1.528   .     S
C32    H41     1.111   .     S
C32    H45     1.111   .     S
C33    H42     1.110   .     S
C33    H46     1.111   .     S
C34    H43     1.082   .     S
O35    Ag44    1.970   1_554 S
Ag44   N31     1.997   1_556 S
Ag44   O22     1.969   1_556 S
Ag44   N29     1.998   1_556 S
Ag44   O35     1.970   1_556 S
O47    H49     1.012   1_554 S
O48    H50     1.012   1_554 S
H49    O47     1.012   1_556 S
H50    O48     1.012   1_556 S
C51    C1      1.573   2_665 S
C51    C1      1.573   3_565 S
C51    C52     1.575   .     S
C52    C4      1.487   2_665 S
C52    C4      1.487   3_565 S
