data_pAg11-ch3
_audit_creation_date              2025-09-02
_audit_creation_method            'Materials Studio'
_symmetry_space_group_name_H-M    'R3'
_symmetry_Int_Tables_number       146
_symmetry_cell_setting            trigonal
loop_
_symmetry_equiv_pos_as_xyz
  x,y,z
  -y,x-y,z
  -x+y,-x,z
  x+2/3,y+1/3,z+1/3
  -y+2/3,x-y+1/3,z+1/3
  -x+y+2/3,-x+1/3,z+1/3
  x+1/3,y+2/3,z+2/3
  -y+1/3,x-y+2/3,z+2/3
  -x+y+1/3,-x+2/3,z+2/3
_cell_length_a                    30.3650
_cell_length_b                    30.3650
_cell_length_c                    40.1530
_cell_angle_alpha                 90.0000
_cell_angle_beta                  90.0000
_cell_angle_gamma                 120.0000
loop_
_atom_site_label
_atom_site_type_symbol
_atom_site_fract_x
_atom_site_fract_y
_atom_site_fract_z
_atom_site_U_iso_or_equiv
_atom_site_adp_type
_atom_site_occupancy
C1     C     0.35664   0.72279  -0.31918   0.05000  Uiso   1.00
C2     C     0.36870   0.75132  -0.35105   0.05000  Uiso   1.00
C3     C     0.32770   0.59939  -0.29953   0.05000  Uiso   1.00
C4     C     0.27810   0.63409  -0.37853   0.05000  Uiso   1.00
C5     C     0.40594   0.68679  -0.29986   0.05000  Uiso   1.00
C6     C     0.39028   0.80113  -0.36104   0.05000  Uiso   1.00
C7     C     0.32512   0.55927  -0.28199   0.05000  Uiso   1.00
C8     C     0.24680   0.61585  -0.40592   0.05000  Uiso   1.00
C9     C     0.44980   0.69835  -0.28296   0.05000  Uiso   1.00
H10    H     0.40443   0.83409  -0.34504   0.06000  Uiso   1.00
H11    H     0.35586   0.55163  -0.27778   0.06000  Uiso   1.00
H12    H     0.25836   0.62281  -0.43175   0.06000  Uiso   1.00
H13    H     0.46525   0.67348  -0.27902   0.06000  Uiso   1.00
N14    N     0.39020   0.80191  -0.39486   0.05000  Uiso   1.00
N15    N     0.27625   0.52925  -0.27189   0.05000  Uiso   1.00
C16    C     0.45344   0.60957  -0.44696   0.05000  Uiso   1.00
C17    C     0.47864   0.59167  -0.46709   0.05000  Uiso   1.00
C18    C     0.48593   0.55207  -0.45489   0.05000  Uiso   1.00
C19    C     0.46984   0.53374  -0.42281   0.05000  Uiso   1.00
C20    C     0.44562   0.55272  -0.40310   0.05000  Uiso   1.00
C21    C     0.43682   0.59033  -0.41520   0.05000  Uiso   1.00
O22    O     0.51011   0.53048  -0.47233   0.05000  Uiso   1.00
C23    C     0.50713   0.44719  -0.54961   0.05000  Uiso   1.00
C24    C     0.49624   0.39716  -0.54581   0.05000  Uiso   1.00
C25    C     0.54389   0.47867  -0.57334   0.05000  Uiso   1.00
C26    C     0.56989   0.45918  -0.59107   0.05000  Uiso   1.00
C27    C     0.55934   0.40953  -0.58657   0.05000  Uiso   1.00
C28    C     0.52196   0.37840  -0.56421   0.05000  Uiso   1.00
N29    N     0.54245   0.55775  -0.56604   0.05000  Uiso   1.00
C30    C     0.55520   0.53012  -0.58340   0.05000  Uiso   1.00
N31    N     0.51525   0.60347  -0.52280   0.05000  Uiso   1.00
C32    C     0.52968   0.62953  -0.55477   0.05000  Uiso   1.00
C33    C     0.55925   0.61026  -0.57503   0.05000  Uiso   1.00
C34    C     0.49870   0.61948  -0.49875   0.05000  Uiso   1.00
O35    O     0.47893   0.46204  -0.53005   0.05000  Uiso   1.00
H36    H     0.44789   0.64006  -0.45580   0.06000  Uiso   1.00
H37    H     0.43287   0.53749  -0.37842   0.06000  Uiso   1.00
H38    H     0.59792   0.48255  -0.60943   0.06000  Uiso   1.00
H39    H     0.51355   0.33970  -0.56060   0.06000  Uiso   1.00
H40    H     0.57694   0.54595  -0.60598   0.06000  Uiso   1.00
H41    H     0.55344   0.67122  -0.55095   0.06000  Uiso   1.00
H42    H     0.60039   0.63398  -0.56927   0.06000  Uiso   1.00
H43    H     0.49787   0.65441  -0.50220   0.06000  Uiso   1.00
Ag44   Ag    0.51040   0.53546   0.47879   0.00000  Uiso   1.00
H45    H     0.49467   0.62125  -0.56857   0.00000  Uiso   1.00
H46    H     0.55317   0.61304  -0.60204   0.00000  Uiso   1.00
C47    C     0.47847   0.49286  -0.40947   0.00000  Uiso   1.00
C48    C     0.45676   0.36341  -0.52138   0.00000  Uiso   1.00
H49    H     0.44139   0.45901   0.59684   0.00000  Uiso   1.00
H50    H     0.50236   0.50671   0.61327   0.00000  Uiso   1.00
H51    H     0.49808   0.48206   0.57167   0.00000  Uiso   1.00
H52    H     0.44021   0.38434   0.49119   0.00000  Uiso   1.00
H53    H     0.47424   0.35031   0.49759   0.00000  Uiso   1.00
H54    H     0.42612   0.32996   0.46546   0.00000  Uiso   1.00
C55    C     0.33333   0.66667  -0.33225   0.05000  Uiso   1.00
C56    C     0.33333   0.66667  -0.37149   0.05000  Uiso   1.00
loop_
_geom_bond_atom_site_label_1
_geom_bond_atom_site_label_2
_geom_bond_distance
_geom_bond_site_symmetry_2
_ccdc_geom_bond_type
C1     C55     1.573   .     S
C1     C2      1.485   .     S
C1     C3      1.486   2_665 S
C1     C5      1.486   2_665 S
C2     C4      1.349   3_565 S
C2     C6      1.374   .     D
C3     C1      1.486   3_565 S
C3     C5      1.349   3_565 S
C3     C7      1.375   .     D
C4     C56     1.487   .     S
C4     C2      1.349   2_665 S
C4     C8      1.376   .     D
C5     C1      1.486   3_565 S
C5     C3      1.349   2_665 S
C5     C9      1.375   .     D
C6     H10     1.081   .     S
C6     N14     1.358   .     S
C7     H11     1.082   .     S
C7     N15     1.358   .     S
C8     H12     1.081   .     S
C8     N14     1.359   2_665 S
C9     H13     1.082   .     S
C9     N15     1.358   2_665 S
N14    C8      1.359   3_565 S
N14    C21     1.431   2_665 S
N15    C9      1.358   3_565 S
N15    C27     1.430   5     S
C16    C17     1.396   .     S
C16    C21     1.388   .     D
C16    H36     1.080   .     S
C17    C18     1.415   .     D
C17    C34     1.479   .     S
C18    C19     1.392   .     S
C18    O22     1.393   .     S
C19    C20     1.386   .     D
C19    C47     1.490   .     S
C20    C21     1.385   .     S
C20    H37     1.080   .     S
C21    N14     1.431   3_565 S
O22    Ag44    1.968   1_554 S
C23    C24     1.392   .     S
C23    C25     1.414   .     D
C23    O35     1.393   .     S
C24    C28     1.387   .     D
C24    C48     1.490   .     S
C25    C26     1.396   .     S
C25    C30     1.478   .     S
C26    C27     1.388   .     D
C26    H38     1.080   .     S
C27    N15     1.430   9_554 S
C27    C28     1.384   .     S
C28    H39     1.080   .     S
N29    C30     1.290   .     D
N29    C33     1.456   .     S
N29    Ag44    1.997   1_554 S
C30    H40     1.082   .     S
N31    C32     1.456   .     S
N31    C34     1.290   .     D
N31    Ag44    1.997   1_554 S
C32    C33     1.528   .     S
C32    H41     1.111   .     S
C32    H45     1.111   .     S
C33    H42     1.110   .     S
C33    H46     1.111   .     S
C34    H43     1.082   .     S
O35    Ag44    1.969   1_554 S
Ag44   N31     1.997   1_556 S
Ag44   O22     1.968   1_556 S
Ag44   N29     1.997   1_556 S
Ag44   O35     1.969   1_556 S
C47    H49     1.110   1_554 S
C47    H50     1.110   1_554 S
C47    H51     1.110   1_554 S
C48    H52     1.110   1_554 S
C48    H53     1.110   1_554 S
C48    H54     1.110   1_554 S
H49    C47     1.110   1_556 S
H50    C47     1.110   1_556 S
H51    C47     1.110   1_556 S
H52    C48     1.110   1_556 S
H53    C48     1.110   1_556 S
H54    C48     1.110   1_556 S
C55    C1      1.573   2_665 S
C55    C1      1.573   3_565 S
C55    C56     1.576   .     S
C56    C4      1.487   2_665 S
C56    C4      1.487   3_565 S
