data_pAg11-f
_audit_creation_date              2025-09-02
_audit_creation_method            'Materials Studio'
_symmetry_space_group_name_H-M    'R3'
_symmetry_Int_Tables_number       146
_symmetry_cell_setting            trigonal
loop_
_symmetry_equiv_pos_as_xyz
  x,y,z
  -y,x-y,z
  -x+y,-x,z
  x+2/3,y+1/3,z+1/3
  -y+2/3,x-y+1/3,z+1/3
  -x+y+2/3,-x+1/3,z+1/3
  x+1/3,y+2/3,z+2/3
  -y+1/3,x-y+2/3,z+2/3
  -x+y+1/3,-x+2/3,z+2/3
_cell_length_a                    30.5336
_cell_length_b                    30.5336
_cell_length_c                    39.9029
_cell_angle_alpha                 90.0000
_cell_angle_beta                  90.0000
_cell_angle_gamma                 120.0000
loop_
_atom_site_label
_atom_site_type_symbol
_atom_site_fract_x
_atom_site_fract_y
_atom_site_fract_z
_atom_site_U_iso_or_equiv
_atom_site_adp_type
_atom_site_occupancy
C1     C     0.35607   0.72244  -0.31710   0.05000  Uiso   1.00
C2     C     0.36782   0.75078  -0.34918   0.05000  Uiso   1.00
C3     C     0.32839   0.60005  -0.29733   0.05000  Uiso   1.00
C4     C     0.27848   0.63384  -0.37683   0.05000  Uiso   1.00
C5     C     0.40568   0.68731  -0.29764   0.05000  Uiso   1.00
C6     C     0.39039   0.80040  -0.35926   0.05000  Uiso   1.00
C7     C     0.32610   0.55993  -0.28015   0.05000  Uiso   1.00
C8     C     0.24729   0.61677  -0.40439   0.05000  Uiso   1.00
C9     C     0.44977   0.69945  -0.28101   0.05000  Uiso   1.00
H10    H     0.40515   0.83327  -0.34318   0.06000  Uiso   1.00
H11    H     0.35683   0.55249  -0.27624   0.06000  Uiso   1.00
H12    H     0.25872   0.62449  -0.43037   0.06000  Uiso   1.00
H13    H     0.46564   0.67511  -0.27725   0.06000  Uiso   1.00
N14    N     0.39099   0.80118  -0.39329   0.05000  Uiso   1.00
N15    N     0.27750   0.52954  -0.27015   0.05000  Uiso   1.00
C16    C     0.45111   0.60740  -0.44562   0.05000  Uiso   1.00
C17    C     0.47498   0.58832  -0.46591   0.05000  Uiso   1.00
C18    C     0.47997   0.54746  -0.45383   0.05000  Uiso   1.00
C19    C     0.46300   0.52913  -0.42171   0.05000  Uiso   1.00
C20    C     0.44030   0.54932  -0.40179   0.05000  Uiso   1.00
C21    C     0.43375   0.58820  -0.41379   0.05000  Uiso   1.00
O22    O     0.50248   0.52439  -0.47134   0.05000  Uiso   1.00
C23    C     0.50421   0.44482  -0.54938   0.05000  Uiso   1.00
C24    C     0.49277   0.39485  -0.54604   0.05000  Uiso   1.00
C25    C     0.54234   0.47673  -0.57220   0.05000  Uiso   1.00
C26    C     0.56893   0.45760  -0.58945   0.05000  Uiso   1.00
C27    C     0.55777   0.40793  -0.58531   0.05000  Uiso   1.00
C28    C     0.51912   0.37645  -0.56384   0.05000  Uiso   1.00
N29    N     0.54125   0.55552  -0.56464   0.05000  Uiso   1.00
C30    C     0.55465   0.52839  -0.58186   0.05000  Uiso   1.00
N31    N     0.51265   0.60020  -0.52160   0.05000  Uiso   1.00
C32    C     0.52863   0.62692  -0.55343   0.05000  Uiso   1.00
C33    C     0.55889   0.60810  -0.57315   0.05000  Uiso   1.00
C34    C     0.49609   0.61624  -0.49754   0.05000  Uiso   1.00
O35    O     0.47521   0.45921  -0.53038   0.05000  Uiso   1.00
H36    H     0.44725   0.63881  -0.45434   0.06000  Uiso   1.00
H37    H     0.42694   0.53404  -0.37707   0.06000  Uiso   1.00
H38    H     0.59796   0.48133  -0.60714   0.06000  Uiso   1.00
H39    H     0.51012   0.33772  -0.56047   0.06000  Uiso   1.00
H40    H     0.57768   0.54479  -0.60397   0.06000  Uiso   1.00
H41    H     0.55217   0.66827  -0.54909   0.06000  Uiso   1.00
H42    H     0.59947   0.63120  -0.56629   0.06000  Uiso   1.00
H43    H     0.49635   0.65155  -0.50089   0.06000  Uiso   1.00
Ag44   Ag    0.50650   0.53195   0.47958   0.00000  Uiso   1.00
H45    H     0.49455   0.61913  -0.56807   0.00000  Uiso   1.00
H46    H     0.55449   0.61185  -0.60045   0.00000  Uiso   1.00
F47    F     0.46856   0.49065  -0.40979   0.00000  Uiso   1.00
F48    F     0.45550   0.36381  -0.52475   0.00000  Uiso   1.00
C49    C     0.33333   0.66667  -0.33025   0.05000  Uiso   1.00
C50    C     0.33333   0.66667  -0.36973   0.05000  Uiso   1.00
loop_
_geom_bond_atom_site_label_1
_geom_bond_atom_site_label_2
_geom_bond_distance
_geom_bond_site_symmetry_2
_ccdc_geom_bond_type
C1     C49     1.573   .     S
C1     C2      1.485   .     S
C1     C3      1.486   2_665 S
C1     C5      1.486   2_665 S
C2     C4      1.349   3_565 S
C2     C6      1.374   .     D
C3     C1      1.486   3_565 S
C3     C5      1.349   3_565 S
C3     C7      1.375   .     D
C4     C50     1.487   .     S
C4     C2      1.349   2_665 S
C4     C8      1.376   .     D
C5     C1      1.486   3_565 S
C5     C3      1.349   2_665 S
C5     C9      1.375   .     D
C6     H10     1.081   .     S
C6     N14     1.358   .     S
C7     H11     1.082   .     S
C7     N15     1.358   .     S
C8     H12     1.082   .     S
C8     N14     1.359   2_665 S
C9     H13     1.082   .     S
C9     N15     1.359   2_665 S
N14    C8      1.359   3_565 S
N14    C21     1.431   2_665 S
N15    C9      1.359   3_565 S
N15    C27     1.431   5     S
C16    C17     1.396   .     S
C16    C21     1.388   .     D
C16    H36     1.081   .     S
C17    C18     1.415   .     D
C17    C34     1.479   .     S
C18    C19     1.391   .     S
C18    O22     1.393   .     S
C19    C20     1.385   .     D
C19    F47     1.355   .     S
C20    C21     1.384   .     S
C20    H37     1.080   .     S
C21    N14     1.431   3_565 S
O22    Ag44    1.969   1_554 S
C23    C24     1.391   .     S
C23    C25     1.414   .     D
C23    O35     1.393   .     S
C24    C28     1.386   .     D
C24    F48     1.355   .     S
C25    C26     1.396   .     S
C25    C30     1.478   .     S
C26    C27     1.388   .     D
C26    H38     1.080   .     S
C27    N15     1.431   9_554 S
C27    C28     1.384   .     S
C28    H39     1.080   .     S
N29    C30     1.290   .     D
N29    C33     1.455   .     S
N29    Ag44    1.998   1_554 S
C30    H40     1.082   .     S
N31    C32     1.456   .     S
N31    C34     1.290   .     D
N31    Ag44    1.997   1_554 S
C32    C33     1.528   .     S
C32    H41     1.111   .     S
C32    H45     1.110   .     S
C33    H42     1.111   .     S
C33    H46     1.111   .     S
C34    H43     1.082   .     S
O35    Ag44    1.970   1_554 S
Ag44   N31     1.997   1_556 S
Ag44   O22     1.969   1_556 S
Ag44   N29     1.998   1_556 S
Ag44   O35     1.970   1_556 S
C49    C1      1.573   2_665 S
C49    C1      1.573   3_565 S
C49    C50     1.575   .     S
C50    C4      1.487   2_665 S
C50    C4      1.487   3_565 S
