data_pAg11-nh2
_audit_creation_date              2025-09-02
_audit_creation_method            'Materials Studio'
_symmetry_space_group_name_H-M    'R3'
_symmetry_Int_Tables_number       146
_symmetry_cell_setting            trigonal
loop_
_symmetry_equiv_pos_as_xyz
  x,y,z
  -y,x-y,z
  -x+y,-x,z
  x+2/3,y+1/3,z+1/3
  -y+2/3,x-y+1/3,z+1/3
  -x+y+2/3,-x+1/3,z+1/3
  x+1/3,y+2/3,z+2/3
  -y+1/3,x-y+2/3,z+2/3
  -x+y+1/3,-x+2/3,z+2/3
_cell_length_a                    30.3833
_cell_length_b                    30.3833
_cell_length_c                    40.2130
_cell_angle_alpha                 90.0000
_cell_angle_beta                  90.0000
_cell_angle_gamma                 120.0000
loop_
_atom_site_label
_atom_site_type_symbol
_atom_site_fract_x
_atom_site_fract_y
_atom_site_fract_z
_atom_site_U_iso_or_equiv
_atom_site_adp_type
_atom_site_occupancy
C1     C     0.35641   0.72274  -0.31867   0.05000  Uiso   1.00
C2     C     0.36835   0.75124  -0.35050   0.05000  Uiso   1.00
C3     C     0.32804   0.59958  -0.29905   0.05000  Uiso   1.00
C4     C     0.27818   0.63391  -0.37792   0.05000  Uiso   1.00
C5     C     0.40597   0.68709  -0.29937   0.05000  Uiso   1.00
C6     C     0.39042   0.80106  -0.36051   0.05000  Uiso   1.00
C7     C     0.32568   0.55959  -0.28153   0.05000  Uiso   1.00
C8     C     0.24690   0.61621  -0.40529   0.05000  Uiso   1.00
C9     C     0.44984   0.69884  -0.28247   0.05000  Uiso   1.00
H10    H     0.40489   0.83407  -0.34456   0.06000  Uiso   1.00
H11    H     0.35653   0.55215  -0.27734   0.06000  Uiso   1.00
H12    H     0.25846   0.62357  -0.43107   0.06000  Uiso   1.00
H13    H     0.46542   0.67411  -0.27852   0.06000  Uiso   1.00
N14    N     0.39066   0.80180  -0.39428   0.05000  Uiso   1.00
N15    N     0.27687   0.52942  -0.27143   0.05000  Uiso   1.00
C16    C     0.45234   0.60844  -0.44636   0.05000  Uiso   1.00
C17    C     0.47691   0.58999  -0.46655   0.05000  Uiso   1.00
C18    C     0.48332   0.54983  -0.45448   0.05000  Uiso   1.00
C19    C     0.46707   0.53154  -0.42249   0.05000  Uiso   1.00
C20    C     0.44357   0.55110  -0.40269   0.05000  Uiso   1.00
C21    C     0.43558   0.58926  -0.41466   0.05000  Uiso   1.00
O22    O     0.50669   0.52747  -0.47193   0.05000  Uiso   1.00
C23    C     0.50609   0.44596  -0.54939   0.05000  Uiso   1.00
C24    C     0.49501   0.39590  -0.54589   0.05000  Uiso   1.00
C25    C     0.54326   0.47774  -0.57273   0.05000  Uiso   1.00
C26    C     0.56944   0.45844  -0.59040   0.05000  Uiso   1.00
C27    C     0.55869   0.40871  -0.58618   0.05000  Uiso   1.00
C28    C     0.52091   0.37731  -0.56418   0.05000  Uiso   1.00
N29    N     0.54184   0.55674  -0.56514   0.05000  Uiso   1.00
C30    C     0.55490   0.52937  -0.58247   0.05000  Uiso   1.00
N31    N     0.51385   0.60187  -0.52209   0.05000  Uiso   1.00
C32    C     0.52885   0.62828  -0.55387   0.05000  Uiso   1.00
C33    C     0.55891   0.60937  -0.57383   0.05000  Uiso   1.00
C34    C     0.49725   0.61785  -0.49811   0.05000  Uiso   1.00
O35    O     0.47761   0.46047  -0.52989   0.05000  Uiso   1.00
H36    H     0.44740   0.63934  -0.45509   0.06000  Uiso   1.00
H37    H     0.43069   0.53591  -0.37805   0.06000  Uiso   1.00
H38    H     0.59777   0.48205  -0.60848   0.06000  Uiso   1.00
H39    H     0.51232   0.33854  -0.56080   0.06000  Uiso   1.00
H40    H     0.57712   0.54555  -0.60480   0.06000  Uiso   1.00
H41    H     0.55243   0.66991  -0.54983   0.06000  Uiso   1.00
H42    H     0.59987   0.63295  -0.56761   0.06000  Uiso   1.00
H43    H     0.49677   0.65295  -0.50149   0.06000  Uiso   1.00
Ag44   Ag    0.50870   0.53373   0.47930   0.00000  Uiso   1.00
H45    H     0.49411   0.62006  -0.56795   0.00000  Uiso   1.00
H46    H     0.55355   0.61262  -0.60086   0.00000  Uiso   1.00
N47    N     0.47454   0.49190  -0.41003   0.00000  Uiso   1.00
N48    N     0.45679   0.36352  -0.52294   0.00000  Uiso   1.00
H49    H     0.46256   0.47767   0.61391   0.00000  Uiso   1.00
H50    H     0.49212   0.47689   0.57519   0.00000  Uiso   1.00
H51    H     0.43729   0.37731   0.49102   0.00000  Uiso   1.00
H52    H     0.44809   0.32589   0.48009   0.00000  Uiso   1.00
C53    C     0.33333   0.66667  -0.33172   0.05000  Uiso   1.00
C54    C     0.33333   0.66667  -0.37089   0.05000  Uiso   1.00
loop_
_geom_bond_atom_site_label_1
_geom_bond_atom_site_label_2
_geom_bond_distance
_geom_bond_site_symmetry_2
_ccdc_geom_bond_type
C1     C53     1.573   .     S
C1     C2      1.485   .     S
C1     C3      1.486   2_665 S
C1     C5      1.486   2_665 S
C2     C4      1.349   3_565 S
C2     C6      1.374   .     D
C3     C1      1.486   3_565 S
C3     C5      1.349   3_565 S
C3     C7      1.375   .     D
C4     C54     1.487   .     S
C4     C2      1.349   2_665 S
C4     C8      1.376   .     D
C5     C1      1.486   3_565 S
C5     C3      1.349   2_665 S
C5     C9      1.375   .     D
C6     H10     1.082   .     S
C6     N14     1.358   .     S
C7     H11     1.082   .     S
C7     N15     1.358   .     S
C8     H12     1.082   .     S
C8     N14     1.359   2_665 S
C9     H13     1.082   .     S
C9     N15     1.358   2_665 S
N14    C8      1.359   3_565 S
N14    C21     1.431   2_665 S
N15    C9      1.358   3_565 S
N15    C27     1.430   5     S
C16    C17     1.396   .     S
C16    C21     1.388   .     D
C16    H36     1.081   .     S
C17    C18     1.414   .     D
C17    C34     1.479   .     S
C18    C19     1.390   .     S
C18    O22     1.393   .     S
C19    C20     1.386   .     D
C19    N47     1.424   .     S
C20    C21     1.384   .     S
C20    H37     1.080   .     S
C21    N14     1.431   3_565 S
O22    Ag44    1.969   1_554 S
C23    C24     1.391   .     S
C23    C25     1.414   .     D
C23    O35     1.393   .     S
C24    C28     1.387   .     D
C24    N48     1.423   .     S
C25    C26     1.396   .     S
C25    C30     1.478   .     S
C26    C27     1.388   .     D
C26    H38     1.080   .     S
C27    N15     1.430   9_554 S
C27    C28     1.384   .     S
C28    H39     1.080   .     S
N29    C30     1.290   .     D
N29    C33     1.456   .     S
N29    Ag44    1.998   1_554 S
C30    H40     1.082   .     S
N31    C32     1.456   .     S
N31    C34     1.290   .     D
N31    Ag44    1.997   1_554 S
C32    C33     1.528   .     S
C32    H41     1.111   .     S
C32    H45     1.110   .     S
C33    H42     1.110   .     S
C33    H46     1.111   .     S
C34    H43     1.082   .     S
O35    Ag44    1.970   1_554 S
Ag44   N31     1.997   1_556 S
Ag44   O22     1.969   1_556 S
Ag44   N29     1.998   1_556 S
Ag44   O35     1.970   1_556 S
N47    H49     1.044   1_554 S
N47    H50     1.044   1_554 S
N48    H51     1.044   1_554 S
N48    H52     1.044   1_554 S
H49    N47     1.044   1_556 S
H50    N47     1.044   1_556 S
H51    N48     1.044   1_556 S
H52    N48     1.044   1_556 S
C53    C1      1.573   2_665 S
C53    C1      1.573   3_565 S
C53    C54     1.575   .     S
C54    C4      1.487   2_665 S
C54    C4      1.487   3_565 S
