data_pAgAg11-ch3
_audit_creation_date              2025-09-02
_audit_creation_method            'Materials Studio'
_symmetry_space_group_name_H-M    'R3'
_symmetry_Int_Tables_number       146
_symmetry_cell_setting            trigonal
loop_
_symmetry_equiv_pos_as_xyz
  x,y,z
  -y,x-y,z
  -x+y,-x,z
  x+2/3,y+1/3,z+1/3
  -y+2/3,x-y+1/3,z+1/3
  -x+y+2/3,-x+1/3,z+1/3
  x+1/3,y+2/3,z+2/3
  -y+1/3,x-y+2/3,z+2/3
  -x+y+1/3,-x+2/3,z+2/3
_cell_length_a                    29.5490
_cell_length_b                    29.5490
_cell_length_c                    40.8711
_cell_angle_alpha                 90.0000
_cell_angle_beta                  90.0000
_cell_angle_gamma                 120.0000
loop_
_atom_site_label
_atom_site_type_symbol
_atom_site_fract_x
_atom_site_fract_y
_atom_site_fract_z
_atom_site_U_iso_or_equiv
_atom_site_adp_type
_atom_site_occupancy
C1     C     0.35704   0.72429  -0.32301   0.05000  Uiso   1.00
C2     C     0.36923   0.75362  -0.35429   0.05000  Uiso   1.00
C3     C     0.32783   0.59760  -0.30383   0.05000  Uiso   1.00
C4     C     0.27650   0.63355  -0.38131   0.05000  Uiso   1.00
C5     C     0.40786   0.68756  -0.30389   0.05000  Uiso   1.00
C6     C     0.39404   0.80498  -0.36400   0.05000  Uiso   1.00
C7     C     0.32678   0.55977  -0.28377   0.05000  Uiso   1.00
C8     C     0.24398   0.61840  -0.40811   0.05000  Uiso   1.00
C9     C     0.44917   0.69739  -0.28385   0.05000  Uiso   1.00
H10    H     0.40881   0.83887  -0.34826   0.06000  Uiso   1.00
H11    H     0.35903   0.55341  -0.27838   0.06000  Uiso   1.00
H12    H     0.25558   0.62740  -0.43346   0.06000  Uiso   1.00
H13    H     0.46335   0.67091  -0.27813   0.06000  Uiso   1.00
N14    N     0.39751   0.80610  -0.39717   0.05000  Uiso   1.00
N15    N     0.27770   0.53149  -0.27139   0.05000  Uiso   1.00
C16    C     0.45885   0.60702  -0.44513   0.05000  Uiso   1.00
C17    C     0.48477   0.58914  -0.46495   0.05000  Uiso   1.00
C18    C     0.48465   0.54263  -0.45603   0.05000  Uiso   1.00
C19    C     0.45714   0.51465  -0.42751   0.05000  Uiso   1.00
C20    C     0.42984   0.53334  -0.40903   0.05000  Uiso   1.00
C21    C     0.43218   0.58030  -0.41734   0.05000  Uiso   1.00
O22    O     0.51515   0.52731  -0.47337   0.05000  Uiso   1.00
N23    N     0.46185   0.43412  -0.43322   0.05000  Uiso   1.00
C24    C     0.45591   0.46640  -0.41479   0.05000  Uiso   1.00
N25    N     0.46899   0.37996  -0.48039   0.05000  Uiso   1.00
C26    C     0.44505   0.34855  -0.45127   0.05000  Uiso   1.00
C27    C     0.45691   0.38513  -0.42185   0.05000  Uiso   1.00
C28    C     0.50851   0.44351  -0.54393   0.05000  Uiso   1.00
C29    C     0.50860   0.39682  -0.53528   0.05000  Uiso   1.00
C30    C     0.48006   0.36277  -0.50657   0.05000  Uiso   1.00
C31    C     0.53571   0.47173  -0.57233   0.05000  Uiso   1.00
C32    C     0.56139   0.45266  -0.59136   0.05000  Uiso   1.00
C33    C     0.56150   0.40731  -0.58327   0.05000  Uiso   1.00
C34    C     0.53626   0.37993  -0.55498   0.05000  Uiso   1.00
N35    N     0.53190   0.55254  -0.56679   0.05000  Uiso   1.00
C36    C     0.53805   0.52025  -0.58511   0.05000  Uiso   1.00
N37    N     0.52418   0.60643  -0.51973   0.05000  Uiso   1.00
C38    C     0.54811   0.63801  -0.54879   0.05000  Uiso   1.00
C39    C     0.53725   0.60168  -0.57823   0.05000  Uiso   1.00
C40    C     0.51252   0.62326  -0.49361   0.05000  Uiso   1.00
O41    O     0.47807   0.45882  -0.52651   0.05000  Uiso   1.00
H42    H     0.46004   0.64324  -0.45111   0.06000  Uiso   1.00
C43    C     0.39544   0.50099  -0.38137   0.06000  Uiso   1.00
H44    H     0.44566   0.45595  -0.38943   0.06000  Uiso   1.00
H45    H     0.46051   0.32172  -0.44678   0.06000  Uiso   1.00
H46    H     0.42515   0.36653  -0.40344   0.06000  Uiso   1.00
H47    H     0.47193   0.32281  -0.50663   0.06000  Uiso   1.00
H48    H     0.58124   0.47302  -0.61345   0.06000  Uiso   1.00
C49    C     0.54119   0.33387  -0.54461   0.06000  Uiso   1.00
H50    H     0.54965   0.53088  -0.61033   0.06000  Uiso   1.00
H51    H     0.59096   0.66182  -0.54490   0.06000  Uiso   1.00
H52    H     0.56964   0.62046  -0.59621   0.06000  Uiso   1.00
H53    H     0.51921   0.66277  -0.49350   0.06000  Uiso   1.00
Ag54   Ag    0.51161   0.53432   0.47937   0.00000  Uiso   1.00
Ag55   Ag    0.48174   0.45201   0.52063   0.00000  Uiso   1.00
H56    H     0.40211   0.32536  -0.45494   0.00000  Uiso   1.00
H57    H     0.49447   0.39329  -0.41061   0.00000  Uiso   1.00
H58    H     0.53206   0.66431  -0.55343   0.00000  Uiso   1.00
H59    H     0.50012   0.59365  -0.59004   0.00000  Uiso   1.00
H60    H     0.37097   0.45986   0.61050   0.00000  Uiso   1.00
H61    H     0.36847   0.51487   0.62622   0.00000  Uiso   1.00
H62    H     0.41979   0.50280   0.63981   0.00000  Uiso   1.00
H63    H     0.50309   0.29737   0.45246   0.00000  Uiso   1.00
H64    H     0.55381   0.33859   0.48134   0.00000  Uiso   1.00
H65    H     0.57111   0.33098   0.44067   0.00000  Uiso   1.00
C66    C     0.33333   0.66667  -0.33590   0.05000  Uiso   1.00
C67    C     0.33333   0.66667  -0.37443   0.05000  Uiso   1.00
loop_
_geom_bond_atom_site_label_1
_geom_bond_atom_site_label_2
_geom_bond_distance
_geom_bond_site_symmetry_2
_ccdc_geom_bond_type
C1     C66     1.573   .     S
C1     C2      1.484   .     S
C1     C3      1.486   2_665 S
C1     C5      1.485   2_665 S
C2     C4      1.350   3_565 S
C2     C6      1.373   .     D
C3     C1      1.486   3_565 S
C3     C5      1.349   3_565 S
C3     C7      1.374   .     D
C4     C67     1.488   .     S
C4     C2      1.350   2_665 S
C4     C8      1.376   .     D
C5     C1      1.485   3_565 S
C5     C3      1.349   2_665 S
C5     C9      1.375   .     D
C6     H10     1.082   .     S
C6     N14     1.358   .     S
C7     H11     1.082   .     S
C7     N15     1.358   .     S
C8     H12     1.082   .     S
C8     N14     1.359   2_665 S
C9     H13     1.082   .     S
C9     N15     1.358   2_665 S
N14    C8      1.359   3_565 S
N14    C21     1.433   2_665 S
N15    C9      1.358   3_565 S
N15    C33     1.430   5     S
C16    C17     1.388   .     S
C16    C21     1.383   .     D
C16    H42     1.081   .     S
C17    C18     1.420   .     D
C17    C40     1.495   .     S
C18    C19     1.425   .     S
C18    O22     1.388   .     S
C19    C20     1.404   .     D
C19    C24     1.501   .     S
C20    C21     1.396   .     S
C20    C43     1.501   .     S
C21    N14     1.433   3_565 S
O22    Ag54    1.951   1_554 S
O22    Ag55    1.946   1_554 S
N23    C24     1.294   .     D
N23    C27     1.457   .     S
N23    Ag55    1.968   1_554 S
C24    H44     1.081   .     S
N25    C26     1.457   .     S
N25    C30     1.295   .     D
N25    Ag55    1.969   1_554 S
C26    C27     1.535   .     S
C26    H45     1.110   .     S
C26    H56     1.110   .     S
C27    H46     1.110   .     S
C27    H57     1.110   .     S
C28    C29     1.426   .     S
C28    C31     1.421   .     D
C28    O41     1.388   .     S
C29    C30     1.501   .     S
C29    C34     1.405   .     D
C30    H47     1.081   .     S
C31    C32     1.388   .     S
C31    C36     1.495   .     S
C32    C33     1.382   .     D
C32    H48     1.081   .     S
C33    N15     1.430   9_554 S
C33    C34     1.394   .     S
C34    C49     1.501   .     S
N35    C36     1.295   .     D
N35    C39     1.457   .     S
N35    Ag54    1.971   1_554 S
C36    H50     1.082   .     S
N37    C38     1.457   .     S
N37    C40     1.295   .     D
N37    Ag54    1.972   1_554 S
C38    C39     1.536   .     S
C38    H51     1.110   .     S
C38    H58     1.111   .     S
C39    H52     1.111   .     S
C39    H59     1.110   .     S
C40    H53     1.082   .     S
O41    Ag54    1.951   1_554 S
O41    Ag55    1.946   1_554 S
C43    H60     1.110   1_554 S
C43    H61     1.107   1_554 S
C43    H62     1.110   1_554 S
C49    H63     1.109   1_554 S
C49    H64     1.110   1_554 S
C49    H65     1.107   1_554 S
Ag54   N37     1.972   1_556 S
Ag54   O22     1.951   1_556 S
Ag54   N35     1.971   1_556 S
Ag54   O41     1.951   1_556 S
Ag54   Ag55    2.719   .     S
Ag55   O22     1.946   1_556 S
Ag55   N23     1.968   1_556 S
Ag55   N25     1.969   1_556 S
Ag55   O41     1.946   1_556 S
H60    C43     1.110   1_556 S
H61    C43     1.107   1_556 S
H62    C43     1.110   1_556 S
H63    C49     1.109   1_556 S
H64    C49     1.110   1_556 S
H65    C49     1.107   1_556 S
C66    C1      1.573   2_665 S
C66    C1      1.573   3_565 S
C66    C67     1.575   .     S
C67    C4      1.488   2_665 S
C67    C4      1.488   3_565 S
