data_pAgAg11
_audit_creation_date              2025-09-02
_audit_creation_method            'Materials Studio'
_symmetry_space_group_name_H-M    'R3'
_symmetry_Int_Tables_number       146
_symmetry_cell_setting            trigonal
loop_
_symmetry_equiv_pos_as_xyz
  x,y,z
  -y,x-y,z
  -x+y,-x,z
  x+2/3,y+1/3,z+1/3
  -y+2/3,x-y+1/3,z+1/3
  -x+y+2/3,-x+1/3,z+1/3
  x+1/3,y+2/3,z+2/3
  -y+1/3,x-y+2/3,z+2/3
  -x+y+1/3,-x+2/3,z+2/3
_cell_length_a                    30.1434
_cell_length_b                    30.1434
_cell_length_c                    39.3717
_cell_angle_alpha                 90.0000
_cell_angle_beta                  90.0000
_cell_angle_gamma                 120.0000
loop_
_atom_site_label
_atom_site_type_symbol
_atom_site_fract_x
_atom_site_fract_y
_atom_site_fract_z
_atom_site_U_iso_or_equiv
_atom_site_adp_type
_atom_site_occupancy
C1     C     0.35766   0.72330  -0.31827   0.05000  Uiso   1.00
C2     C     0.37039   0.75210  -0.35078   0.05000  Uiso   1.00
C3     C     0.32649   0.59845  -0.29814   0.05000  Uiso   1.00
C4     C     0.27763   0.63458  -0.37879   0.05000  Uiso   1.00
C5     C     0.40624   0.68579  -0.29865   0.05000  Uiso   1.00
C6     C     0.39240   0.80229  -0.36104   0.05000  Uiso   1.00
C7     C     0.32341   0.55834  -0.27958   0.05000  Uiso   1.00
C8     C     0.24621   0.61596  -0.40675   0.05000  Uiso   1.00
C9     C     0.44990   0.69651  -0.28107   0.05000  Uiso   1.00
H10    H     0.40704   0.83565  -0.34481   0.06000  Uiso   1.00
H11    H     0.35404   0.55034  -0.27471   0.06000  Uiso   1.00
H12    H     0.25793   0.62223  -0.43310   0.06000  Uiso   1.00
H13    H     0.46496   0.67103  -0.27702   0.06000  Uiso   1.00
N14    N     0.39170   0.80289  -0.39552   0.05000  Uiso   1.00
N15    N     0.27409   0.52886  -0.26928   0.05000  Uiso   1.00
C16    C     0.45851   0.61262  -0.44687   0.05000  Uiso   1.00
C17    C     0.48466   0.59550  -0.46726   0.05000  Uiso   1.00
C18    C     0.48761   0.55190  -0.45665   0.05000  Uiso   1.00
C19    C     0.46399   0.52701  -0.42569   0.05000  Uiso   1.00
C20    C     0.43994   0.54697  -0.40586   0.05000  Uiso   1.00
C21    C     0.43673   0.58909  -0.41632   0.05000  Uiso   1.00
O22    O     0.51752   0.53673  -0.47441   0.05000  Uiso   1.00
N23    N     0.46743   0.44756  -0.43011   0.05000  Uiso   1.00
C24    C     0.46279   0.48045  -0.41150   0.05000  Uiso   1.00
N25    N     0.47089   0.39122  -0.47823   0.05000  Uiso   1.00
C26    C     0.44823   0.36217  -0.44727   0.05000  Uiso   1.00
C27    C     0.46203   0.39969  -0.41748   0.05000  Uiso   1.00
C28    C     0.51106   0.45152  -0.54479   0.05000  Uiso   1.00
C29    C     0.50848   0.40478  -0.53523   0.05000  Uiso   1.00
C30    C     0.48085   0.37282  -0.50504   0.05000  Uiso   1.00
C31    C     0.54010   0.47854  -0.57385   0.05000  Uiso   1.00
C32    C     0.56570   0.45851  -0.59202   0.05000  Uiso   1.00
C33    C     0.56195   0.41239  -0.58314   0.05000  Uiso   1.00
C34    C     0.53308   0.38561  -0.55528   0.05000  Uiso   1.00
N35    N     0.53741   0.55886  -0.57078   0.05000  Uiso   1.00
C36    C     0.54566   0.52710  -0.58805   0.05000  Uiso   1.00
N37    N     0.52190   0.61069  -0.52477   0.05000  Uiso   1.00
C38    C     0.53657   0.63823  -0.55697   0.05000  Uiso   1.00
C39    C     0.55132   0.60980  -0.58308   0.05000  Uiso   1.00
C40    C     0.50817   0.62684  -0.49850   0.05000  Uiso   1.00
O41    O     0.48140   0.46772  -0.52776   0.05000  Uiso   1.00
H42    H     0.45611   0.64581  -0.45447   0.06000  Uiso   1.00
H43    H     0.42212   0.52858  -0.38217   0.06000  Uiso   1.00
H44    H     0.45287   0.47155  -0.38499   0.06000  Uiso   1.00
H45    H     0.46260   0.33528  -0.44234   0.06000  Uiso   1.00
H46    H     0.43177   0.38299  -0.39769   0.06000  Uiso   1.00
H47    H     0.47325   0.33373  -0.50437   0.06000  Uiso   1.00
H48    H     0.58807   0.47846  -0.61413   0.06000  Uiso   1.00
H49    H     0.53124   0.34997  -0.54852   0.06000  Uiso   1.00
H50    H     0.56165   0.53823  -0.61330   0.06000  Uiso   1.00
H51    H     0.56942   0.67746  -0.55291   0.06000  Uiso   1.00
H52    H     0.59336   0.63198  -0.58730   0.06000  Uiso   1.00
H53    H     0.50974   0.66343  -0.50023   0.06000  Uiso   1.00
Ag54   Ag    0.51389   0.54178   0.47654   0.00000  Uiso   1.00
Ag55   Ag    0.48496   0.46263   0.52134   0.00000  Uiso   1.00
H56    H     0.40594   0.34018  -0.45025   0.00000  Uiso   1.00
H57    H     0.49912   0.40744  -0.40642   0.00000  Uiso   1.00
H58    H     0.50367   0.64114  -0.56697   0.00000  Uiso   1.00
H59    H     0.53159   0.60657  -0.60755   0.00000  Uiso   1.00
C60    C     0.33333   0.66667  -0.33160   0.05000  Uiso   1.00
C61    C     0.33333   0.66667  -0.37160   0.05000  Uiso   1.00
loop_
_geom_bond_atom_site_label_1
_geom_bond_atom_site_label_2
_geom_bond_distance
_geom_bond_site_symmetry_2
_ccdc_geom_bond_type
C1     C60     1.574   .     S
C1     C2      1.486   .     S
C1     C3      1.487   2_665 S
C1     C5      1.485   2_665 S
C2     C4      1.349   3_565 S
C2     C6      1.374   .     D
C3     C1      1.487   3_565 S
C3     C5      1.350   3_565 S
C3     C7      1.375   .     D
C4     C61     1.487   .     S
C4     C2      1.349   2_665 S
C4     C8      1.376   .     D
C5     C1      1.485   3_565 S
C5     C3      1.350   2_665 S
C5     C9      1.375   .     D
C6     H10     1.082   .     S
C6     N14     1.358   .     S
C7     H11     1.082   .     S
C7     N15     1.358   .     S
C8     H12     1.082   .     S
C8     N14     1.358   2_665 S
C9     H13     1.082   .     S
C9     N15     1.357   2_665 S
N14    C8      1.358   3_565 S
N14    C21     1.430   2_665 S
N15    C9      1.357   3_565 S
N15    C33     1.427   5     S
C16    C17     1.392   .     S
C16    C21     1.384   .     D
C16    H42     1.081   .     S
C17    C18     1.423   .     D
C17    C40     1.496   .     S
C18    C19     1.422   .     S
C18    O22     1.387   .     S
C19    C20     1.390   .     D
C19    C24     1.494   .     S
C20    C21     1.383   .     S
C20    H43     1.081   .     S
C21    N14     1.430   3_565 S
O22    Ag54    1.944   1_554 S
O22    Ag55    1.946   1_554 S
N23    C24     1.295   .     D
N23    C27     1.457   .     S
N23    Ag55    1.975   1_554 S
C24    H44     1.082   .     S
N25    C26     1.457   .     S
N25    C30     1.295   .     D
N25    Ag55    1.975   1_554 S
C26    C27     1.535   .     S
C26    H45     1.110   .     S
C26    H56     1.110   .     S
C27    H46     1.111   .     S
C27    H57     1.110   .     S
C28    C29     1.423   .     S
C28    C31     1.423   .     D
C28    O41     1.387   .     S
C29    C30     1.494   .     S
C29    C34     1.391   .     D
C30    H47     1.082   .     S
C31    C32     1.392   .     S
C31    C36     1.496   .     S
C32    C33     1.382   .     D
C32    H48     1.081   .     S
C33    N15     1.427   9_554 S
C33    C34     1.382   .     S
C34    H49     1.081   .     S
N35    C36     1.296   .     D
N35    C39     1.458   .     S
N35    Ag54    1.968   1_554 S
C36    H50     1.082   .     S
N37    C38     1.458   .     S
N37    C40     1.296   .     D
N37    Ag54    1.968   1_554 S
C38    C39     1.539   .     S
C38    H51     1.111   .     S
C38    H58     1.111   .     S
C39    H52     1.110   .     S
C39    H59     1.111   .     S
C40    H53     1.082   .     S
O41    Ag54    1.945   1_554 S
O41    Ag55    1.946   1_554 S
Ag54   N37     1.968   1_556 S
Ag54   O22     1.944   1_556 S
Ag54   N35     1.968   1_556 S
Ag54   O41     1.945   1_556 S
Ag54   Ag55    2.736   .     S
Ag55   O22     1.946   1_556 S
Ag55   N23     1.975   1_556 S
Ag55   N25     1.975   1_556 S
Ag55   O41     1.946   1_556 S
C60    C1      1.574   2_665 S
C60    C1      1.574   3_565 S
C60    C61     1.575   .     S
C61    C4      1.487   2_665 S
C61    C4      1.487   3_565 S
