data_pAgAg11-nh2
_audit_creation_date              2025-09-02
_audit_creation_method            'Materials Studio'
_symmetry_space_group_name_H-M    'R3'
_symmetry_Int_Tables_number       146
_symmetry_cell_setting            trigonal
loop_
_symmetry_equiv_pos_as_xyz
  x,y,z
  -y,x-y,z
  -x+y,-x,z
  x+2/3,y+1/3,z+1/3
  -y+2/3,x-y+1/3,z+1/3
  -x+y+2/3,-x+1/3,z+1/3
  x+1/3,y+2/3,z+2/3
  -y+1/3,x-y+2/3,z+2/3
  -x+y+1/3,-x+2/3,z+2/3
_cell_length_a                    29.7133
_cell_length_b                    29.7133
_cell_length_c                    40.3700
_cell_angle_alpha                 90.0000
_cell_angle_beta                  90.0000
_cell_angle_gamma                 120.0000
loop_
_atom_site_label
_atom_site_type_symbol
_atom_site_fract_x
_atom_site_fract_y
_atom_site_fract_z
_atom_site_U_iso_or_equiv
_atom_site_adp_type
_atom_site_occupancy
C1     C     0.35672   0.72396  -0.32148   0.05000  Uiso   1.00
C2     C     0.36878   0.75312  -0.35315   0.05000  Uiso   1.00
C3     C     0.32817   0.59813  -0.30203   0.05000  Uiso   1.00
C4     C     0.27685   0.63337  -0.38052   0.05000  Uiso   1.00
C5     C     0.40755   0.68775  -0.30214   0.05000  Uiso   1.00
C6     C     0.39323   0.80419  -0.36298   0.05000  Uiso   1.00
C7     C     0.32686   0.55953  -0.28259   0.05000  Uiso   1.00
C8     C     0.24453   0.61774  -0.40768   0.05000  Uiso   1.00
C9     C     0.44986   0.69839  -0.28282   0.05000  Uiso   1.00
H10    H     0.40820   0.83795  -0.34708   0.06000  Uiso   1.00
H11    H     0.35881   0.55282  -0.27759   0.06000  Uiso   1.00
H12    H     0.25601   0.62644  -0.43337   0.06000  Uiso   1.00
H13    H     0.46477   0.67256  -0.27755   0.06000  Uiso   1.00
N14    N     0.39603   0.80523  -0.39657   0.05000  Uiso   1.00
N15    N     0.27777   0.53048  -0.27068   0.05000  Uiso   1.00
C16    C     0.46073   0.60879  -0.44440   0.05000  Uiso   1.00
C17    C     0.48603   0.59025  -0.46426   0.05000  Uiso   1.00
C18    C     0.48384   0.54289  -0.45549   0.05000  Uiso   1.00
C19    C     0.45497   0.51479  -0.42710   0.05000  Uiso   1.00
C20    C     0.42817   0.53415  -0.40874   0.05000  Uiso   1.00
C21    C     0.43266   0.58181  -0.41682   0.05000  Uiso   1.00
O22    O     0.51353   0.52664  -0.47283   0.05000  Uiso   1.00
N23    N     0.45648   0.43319  -0.43333   0.05000  Uiso   1.00
C24    C     0.45220   0.46603  -0.41440   0.05000  Uiso   1.00
N25    N     0.46260   0.37924  -0.48138   0.05000  Uiso   1.00
C26    C     0.43662   0.34753  -0.45244   0.05000  Uiso   1.00
C27    C     0.44924   0.38333  -0.42225   0.05000  Uiso   1.00
C28    C     0.50646   0.44406  -0.54470   0.05000  Uiso   1.00
C29    C     0.50476   0.39674  -0.53599   0.05000  Uiso   1.00
C30    C     0.47342   0.36212  -0.50794   0.05000  Uiso   1.00
C31    C     0.53531   0.47247  -0.57288   0.05000  Uiso   1.00
C32    C     0.56086   0.45300  -0.59167   0.05000  Uiso   1.00
C33    C     0.55964   0.40733  -0.58331   0.05000  Uiso   1.00
C34    C     0.53299   0.37989  -0.55515   0.05000  Uiso   1.00
N35    N     0.53421   0.55418  -0.56702   0.05000  Uiso   1.00
C36    C     0.53974   0.52176  -0.58562   0.05000  Uiso   1.00
N37    N     0.52696   0.60774  -0.51919   0.05000  Uiso   1.00
C38    C     0.55253   0.63962  -0.54816   0.05000  Uiso   1.00
C39    C     0.54175   0.60407  -0.57827   0.05000  Uiso   1.00
C40    C     0.51538   0.62453  -0.49277   0.05000  Uiso   1.00
O41    O     0.47652   0.46014  -0.52748   0.05000  Uiso   1.00
H42    H     0.46335   0.64554  -0.45021   0.06000  Uiso   1.00
N43    N     0.39327   0.50369  -0.38286   0.06000  Uiso   1.00
H44    H     0.44272   0.45590  -0.38865   0.06000  Uiso   1.00
H45    H     0.44980   0.31904  -0.44800   0.06000  Uiso   1.00
H46    H     0.41716   0.36540  -0.40391   0.06000  Uiso   1.00
H47    H     0.46238   0.32156  -0.50881   0.06000  Uiso   1.00
H48    H     0.58201   0.47353  -0.61361   0.06000  Uiso   1.00
N49    N     0.53763   0.33631  -0.54483   0.06000  Uiso   1.00
H50    H     0.55245   0.53277  -0.61095   0.06000  Uiso   1.00
H51    H     0.59505   0.66209  -0.54357   0.06000  Uiso   1.00
H52    H     0.57475   0.62238  -0.59595   0.06000  Uiso   1.00
H53    H     0.52342   0.66430  -0.49235   0.06000  Uiso   1.00
Ag54   Ag    0.51197   0.53519   0.47935   0.00000  Uiso   1.00
Ag55   Ag    0.47808   0.45181   0.52026   0.00000  Uiso   1.00
H56    H     0.39401   0.32650  -0.45676   0.00000  Uiso   1.00
H57    H     0.48583   0.38959  -0.41068   0.00000  Uiso   1.00
H58    H     0.53796   0.66693  -0.55291   0.00000  Uiso   1.00
H59    H     0.50572   0.59769  -0.59076   0.00000  Uiso   1.00
H60    H     0.36970   0.51573   0.62868   0.00000  Uiso   1.00
H61    H     0.38568   0.46620   0.62234   0.00000  Uiso   1.00
H62    H     0.52216   0.31741   0.47755   0.00000  Uiso   1.00
H63    H     0.56175   0.32618   0.44239   0.00000  Uiso   1.00
C64    C     0.33333   0.66667  -0.33452   0.05000  Uiso   1.00
C65    C     0.33333   0.66667  -0.37355   0.05000  Uiso   1.00
loop_
_geom_bond_atom_site_label_1
_geom_bond_atom_site_label_2
_geom_bond_distance
_geom_bond_site_symmetry_2
_ccdc_geom_bond_type
C1     C64     1.573   .     S
C1     C2      1.484   .     S
C1     C3      1.486   2_665 S
C1     C5      1.486   2_665 S
C2     C4      1.350   3_565 S
C2     C6      1.373   .     D
C3     C1      1.486   3_565 S
C3     C5      1.349   3_565 S
C3     C7      1.374   .     D
C4     C65     1.488   .     S
C4     C2      1.350   2_665 S
C4     C8      1.376   .     D
C5     C1      1.486   3_565 S
C5     C3      1.349   2_665 S
C5     C9      1.375   .     D
C6     H10     1.082   .     S
C6     N14     1.358   .     S
C7     H11     1.082   .     S
C7     N15     1.358   .     S
C8     H12     1.082   .     S
C8     N14     1.358   2_665 S
C9     H13     1.082   .     S
C9     N15     1.358   2_665 S
N14    C8      1.358   3_565 S
N14    C21     1.431   2_665 S
N15    C9      1.358   3_565 S
N15    C33     1.430   5     S
C16    C17     1.388   .     S
C16    C21     1.382   .     D
C16    H42     1.081   .     S
C17    C18     1.421   .     D
C17    C40     1.495   .     S
C18    C19     1.425   .     S
C18    O22     1.388   .     S
C19    C20     1.404   .     D
C19    C24     1.500   .     S
C20    C21     1.393   .     S
C20    N43     1.431   .     S
C21    N14     1.431   3_565 S
O22    Ag54    1.951   1_554 S
O22    Ag55    1.947   1_554 S
N23    C24     1.294   .     D
N23    C27     1.457   .     S
N23    Ag55    1.968   1_554 S
C24    H44     1.080   .     S
N25    C26     1.456   .     S
N25    C30     1.295   .     D
N25    Ag55    1.968   1_554 S
C26    C27     1.536   .     S
C26    H45     1.111   .     S
C26    H56     1.110   .     S
C27    H46     1.111   .     S
C27    H57     1.110   .     S
C28    C29     1.425   .     S
C28    C31     1.421   .     D
C28    O41     1.388   .     S
C29    C30     1.500   .     S
C29    C34     1.405   .     D
C30    H47     1.080   .     S
C31    C32     1.388   .     S
C31    C36     1.495   .     S
C32    C33     1.381   .     D
C32    H48     1.081   .     S
C33    N15     1.430   9_554 S
C33    C34     1.392   .     S
C34    N49     1.431   .     S
N35    C36     1.295   .     D
N35    C39     1.457   .     S
N35    Ag54    1.971   1_554 S
C36    H50     1.082   .     S
N37    C38     1.457   .     S
N37    C40     1.295   .     D
N37    Ag54    1.972   1_554 S
C38    C39     1.536   .     S
C38    H51     1.110   .     S
C38    H58     1.111   .     S
C39    H52     1.111   .     S
C39    H59     1.110   .     S
C40    H53     1.082   .     S
O41    Ag54    1.952   1_554 S
O41    Ag55    1.947   1_554 S
N43    H60     1.042   1_554 S
N43    H61     1.041   1_554 S
N49    H62     1.042   1_554 S
N49    H63     1.042   1_554 S
Ag54   N37     1.972   1_556 S
Ag54   O22     1.951   1_556 S
Ag54   N35     1.971   1_556 S
Ag54   O41     1.952   1_556 S
Ag54   Ag55    2.718   .     S
Ag55   O22     1.947   1_556 S
Ag55   N23     1.968   1_556 S
Ag55   N25     1.968   1_556 S
Ag55   O41     1.947   1_556 S
H60    N43     1.042   1_556 S
H61    N43     1.041   1_556 S
H62    N49     1.042   1_556 S
H63    N49     1.042   1_556 S
C64    C1      1.573   2_665 S
C64    C1      1.573   3_565 S
C64    C65     1.576   .     S
C65    C4      1.488   2_665 S
C65    C4      1.488   3_565 S
