data_pAgAg11-f
_audit_creation_date              2025-09-02
_audit_creation_method            'Materials Studio'
_symmetry_space_group_name_H-M    'R3'
_symmetry_Int_Tables_number       146
_symmetry_cell_setting            trigonal
loop_
_symmetry_equiv_pos_as_xyz
  x,y,z
  -y,x-y,z
  -x+y,-x,z
  x+2/3,y+1/3,z+1/3
  -y+2/3,x-y+1/3,z+1/3
  -x+y+2/3,-x+1/3,z+1/3
  x+1/3,y+2/3,z+2/3
  -y+1/3,x-y+2/3,z+2/3
  -x+y+1/3,-x+2/3,z+2/3
_cell_length_a                    29.7116
_cell_length_b                    29.7116
_cell_length_c                    40.3616
_cell_angle_alpha                 90.0000
_cell_angle_beta                  90.0000
_cell_angle_gamma                 120.0000
loop_
_atom_site_label
_atom_site_type_symbol
_atom_site_fract_x
_atom_site_fract_y
_atom_site_fract_z
_atom_site_U_iso_or_equiv
_atom_site_adp_type
_atom_site_occupancy
C1     C     0.35734   0.72407  -0.32006   0.05000  Uiso   1.00
C2     C     0.36997   0.75328  -0.35178   0.05000  Uiso   1.00
C3     C     0.32738   0.59788  -0.30046   0.05000  Uiso   1.00
C4     C     0.27688   0.63371  -0.37910   0.05000  Uiso   1.00
C5     C     0.40752   0.68702  -0.30087   0.05000  Uiso   1.00
C6     C     0.39360   0.80429  -0.36182   0.05000  Uiso   1.00
C7     C     0.32534   0.55852  -0.28145   0.05000  Uiso   1.00
C8     C     0.24492   0.61638  -0.40639   0.05000  Uiso   1.00
C9     C     0.45081   0.69784  -0.28255   0.05000  Uiso   1.00
H10    H     0.40876   0.83818  -0.34602   0.06000  Uiso   1.00
H11    H     0.35701   0.55142  -0.27638   0.06000  Uiso   1.00
H12    H     0.25673   0.62379  -0.43208   0.06000  Uiso   1.00
H13    H     0.46596   0.67204  -0.27790   0.06000  Uiso   1.00
N14    N     0.39420   0.80495  -0.39546   0.05000  Uiso   1.00
N15    N     0.27573   0.52881  -0.27057   0.05000  Uiso   1.00
C16    C     0.46026   0.61094  -0.44475   0.05000  Uiso   1.00
C17    C     0.48588   0.59300  -0.46493   0.05000  Uiso   1.00
C18    C     0.48529   0.54638  -0.45603   0.05000  Uiso   1.00
C19    C     0.45872   0.51924  -0.42684   0.05000  Uiso   1.00
C20    C     0.43484   0.53982  -0.40711   0.05000  Uiso   1.00
C21    C     0.43542   0.58519  -0.41597   0.05000  Uiso   1.00
O22    O     0.51491   0.53042  -0.47367   0.05000  Uiso   1.00
N23    N     0.45913   0.43714  -0.43339   0.05000  Uiso   1.00
C24    C     0.45470   0.46989  -0.41442   0.05000  Uiso   1.00
N25    N     0.46474   0.38290  -0.48161   0.05000  Uiso   1.00
C26    C     0.43960   0.35136  -0.45245   0.05000  Uiso   1.00
C27    C     0.45180   0.38724  -0.42231   0.05000  Uiso   1.00
C28    C     0.50803   0.44790  -0.54500   0.05000  Uiso   1.00
C29    C     0.50525   0.40002  -0.53673   0.05000  Uiso   1.00
C30    C     0.47587   0.36584  -0.50812   0.05000  Uiso   1.00
C31    C     0.53750   0.47649  -0.57303   0.05000  Uiso   1.00
C32    C     0.56343   0.45701  -0.59154   0.05000  Uiso   1.00
C33    C     0.55998   0.41004  -0.58382   0.05000  Uiso   1.00
C34    C     0.53082   0.38167  -0.55680   0.05000  Uiso   1.00
N35    N     0.53567   0.55793  -0.56759   0.05000  Uiso   1.00
C36    C     0.54214   0.52582  -0.58590   0.05000  Uiso   1.00
N37    N     0.52577   0.61062  -0.52026   0.05000  Uiso   1.00
C38    C     0.55089   0.64266  -0.54926   0.05000  Uiso   1.00
C39    C     0.54224   0.60729  -0.57919   0.05000  Uiso   1.00
C40    C     0.51371   0.62708  -0.49387   0.05000  Uiso   1.00
O41    O     0.47804   0.46387  -0.52779   0.05000  Uiso   1.00
H42    H     0.46073   0.64654  -0.45104   0.06000  Uiso   1.00
F43    F     0.40904   0.51422  -0.37935   0.06000  Uiso   1.00
H44    H     0.44325   0.45912  -0.38889   0.06000  Uiso   1.00
H45    H     0.45357   0.32349  -0.44800   0.06000  Uiso   1.00
H46    H     0.41953   0.36922  -0.40410   0.06000  Uiso   1.00
H47    H     0.46749   0.32597  -0.50850   0.06000  Uiso   1.00
H48    H     0.58585   0.47810  -0.61299   0.06000  Uiso   1.00
F49    F     0.52895   0.33631  -0.54919   0.06000  Uiso   1.00
H50    H     0.55525   0.53686  -0.61117   0.06000  Uiso   1.00
H51    H     0.59322   0.66675  -0.54436   0.06000  Uiso   1.00
H52    H     0.57589   0.62633  -0.59634   0.06000  Uiso   1.00
H53    H     0.52066   0.66648  -0.49360   0.06000  Uiso   1.00
Ag54   Ag    0.51278   0.53879   0.47864   0.00000  Uiso   1.00
Ag55   Ag    0.47990   0.45551   0.51994   0.00000  Uiso   1.00
H56    H     0.39694   0.32953  -0.45656   0.00000  Uiso   1.00
H57    H     0.48826   0.39353  -0.41051   0.00000  Uiso   1.00
H58    H     0.53469   0.66847  -0.55447   0.00000  Uiso   1.00
H59    H     0.50641   0.59991  -0.59240   0.00000  Uiso   1.00
C60    C     0.33333   0.66667  -0.33307   0.05000  Uiso   1.00
C61    C     0.33333   0.66667  -0.37207   0.05000  Uiso   1.00
loop_
_geom_bond_atom_site_label_1
_geom_bond_atom_site_label_2
_geom_bond_distance
_geom_bond_site_symmetry_2
_ccdc_geom_bond_type
C1     C60     1.574   .     S
C1     C2      1.486   .     S
C1     C3      1.486   2_665 S
C1     C5      1.486   2_665 S
C2     C4      1.349   3_565 S
C2     C6      1.375   .     D
C3     C1      1.486   3_565 S
C3     C5      1.349   3_565 S
C3     C7      1.375   .     D
C4     C61     1.487   .     S
C4     C2      1.349   2_665 S
C4     C8      1.375   .     D
C5     C1      1.486   3_565 S
C5     C3      1.349   2_665 S
C5     C9      1.375   .     D
C6     H10     1.082   .     S
C6     N14     1.358   .     S
C7     H11     1.082   .     S
C7     N15     1.358   .     S
C8     H12     1.082   .     S
C8     N14     1.358   2_665 S
C9     H13     1.082   .     S
C9     N15     1.358   2_665 S
N14    C8      1.358   3_565 S
N14    C21     1.430   2_665 S
N15    C9      1.358   3_565 S
N15    C33     1.429   5     S
C16    C17     1.390   .     S
C16    C21     1.384   .     D
C16    H42     1.081   .     S
C17    C18     1.422   .     D
C17    C40     1.495   .     S
C18    C19     1.423   .     S
C18    O22     1.387   .     S
C19    C20     1.395   .     D
C19    C24     1.497   .     S
C20    C21     1.387   .     S
C20    F43     1.356   .     S
C21    N14     1.430   3_565 S
O22    Ag54    1.946   1_554 S
O22    Ag55    1.946   1_554 S
N23    C24     1.296   .     D
N23    C27     1.457   .     S
N23    Ag55    1.972   1_554 S
C24    H44     1.082   .     S
N25    C26     1.457   .     S
N25    C30     1.296   .     D
N25    Ag55    1.972   1_554 S
C26    C27     1.536   .     S
C26    H45     1.111   .     S
C26    H56     1.110   .     S
C27    H46     1.110   .     S
C27    H57     1.110   .     S
C28    C29     1.423   .     S
C28    C31     1.423   .     D
C28    O41     1.387   .     S
C29    C30     1.497   .     S
C29    C34     1.395   .     D
C30    H47     1.082   .     S
C31    C32     1.390   .     S
C31    C36     1.495   .     S
C32    C33     1.383   .     D
C32    H48     1.081   .     S
C33    N15     1.429   9_554 S
C33    C34     1.386   .     S
C34    F49     1.356   .     S
N35    C36     1.295   .     D
N35    C39     1.457   .     S
N35    Ag54    1.970   1_554 S
C36    H50     1.082   .     S
N37    C38     1.457   .     S
N37    C40     1.295   .     D
N37    Ag54    1.970   1_554 S
C38    C39     1.536   .     S
C38    H51     1.110   .     S
C38    H58     1.111   .     S
C39    H52     1.111   .     S
C39    H59     1.110   .     S
C40    H53     1.082   .     S
O41    Ag54    1.947   1_554 S
O41    Ag55    1.947   1_554 S
Ag54   N37     1.970   1_556 S
Ag54   O22     1.946   1_556 S
Ag54   N35     1.970   1_556 S
Ag54   O41     1.947   1_556 S
Ag54   Ag55    2.727   .     S
Ag55   O22     1.946   1_556 S
Ag55   N23     1.972   1_556 S
Ag55   N25     1.972   1_556 S
Ag55   O41     1.947   1_556 S
C60    C1      1.574   2_665 S
C60    C1      1.574   3_565 S
C60    C61     1.574   .     S
C61    C4      1.487   2_665 S
C61    C4      1.487   3_565 S
