data_pAgAg11-oh
_audit_creation_date              2025-09-02
_audit_creation_method            'Materials Studio'
_symmetry_space_group_name_H-M    'R3'
_symmetry_Int_Tables_number       146
_symmetry_cell_setting            trigonal
loop_
_symmetry_equiv_pos_as_xyz
  x,y,z
  -y,x-y,z
  -x+y,-x,z
  x+2/3,y+1/3,z+1/3
  -y+2/3,x-y+1/3,z+1/3
  -x+y+2/3,-x+1/3,z+1/3
  x+1/3,y+2/3,z+2/3
  -y+1/3,x-y+2/3,z+2/3
  -x+y+1/3,-x+2/3,z+2/3
_cell_length_a                    29.9511
_cell_length_b                    29.9511
_cell_length_c                    39.8134
_cell_angle_alpha                 90.0000
_cell_angle_beta                  90.0000
_cell_angle_gamma                 120.0000
loop_
_atom_site_label
_atom_site_type_symbol
_atom_site_fract_x
_atom_site_fract_y
_atom_site_fract_z
_atom_site_U_iso_or_equiv
_atom_site_adp_type
_atom_site_occupancy
C1     C     0.35834   0.72370  -0.32086   0.05000  Uiso   1.00
C2     C     0.37134   0.75272  -0.35300   0.05000  Uiso   1.00
C3     C     0.32566   0.59763  -0.30106   0.05000  Uiso   1.00
C4     C     0.27721   0.63477  -0.38072   0.05000  Uiso   1.00
C5     C     0.40640   0.68512  -0.30134   0.05000  Uiso   1.00
C6     C     0.39323   0.80322  -0.36311   0.05000  Uiso   1.00
C7     C     0.32288   0.55865  -0.28134   0.05000  Uiso   1.00
C8     C     0.24558   0.61555  -0.40834   0.05000  Uiso   1.00
C9     C     0.44832   0.69443  -0.28208   0.05000  Uiso   1.00
H10    H     0.40780   0.83676  -0.34705   0.06000  Uiso   1.00
H11    H     0.35372   0.55080  -0.27600   0.06000  Uiso   1.00
H12    H     0.25738   0.62131  -0.43440   0.06000  Uiso   1.00
H13    H     0.46217   0.66796  -0.27700   0.06000  Uiso   1.00
N14    N     0.39207   0.80383  -0.39719   0.05000  Uiso   1.00
N15    N     0.27383   0.53080  -0.26971   0.05000  Uiso   1.00
C16    C     0.45935   0.61249  -0.44801   0.05000  Uiso   1.00
C17    C     0.48572   0.59538  -0.46809   0.05000  Uiso   1.00
C18    C     0.49078   0.55302  -0.45691   0.05000  Uiso   1.00
C19    C     0.46900   0.52903  -0.42558   0.05000  Uiso   1.00
C20    C     0.44252   0.54778  -0.40657   0.05000  Uiso   1.00
C21    C     0.43823   0.58927  -0.41757   0.05000  Uiso   1.00
O22    O     0.52109   0.53836  -0.47483   0.05000  Uiso   1.00
N23    N     0.47881   0.45243  -0.42826   0.05000  Uiso   1.00
C24    C     0.47410   0.48602  -0.41043   0.05000  Uiso   1.00
N25    N     0.48387   0.39461  -0.47448   0.05000  Uiso   1.00
C26    C     0.46641   0.36788  -0.44245   0.05000  Uiso   1.00
C27    C     0.47989   0.40793  -0.41446   0.05000  Uiso   1.00
C28    C     0.51321   0.44951  -0.54296   0.05000  Uiso   1.00
C29    C     0.51652   0.40597  -0.53223   0.05000  Uiso   1.00
C30    C     0.49415   0.37584  -0.50075   0.05000  Uiso   1.00
C31    C     0.53712   0.47451  -0.57357   0.05000  Uiso   1.00
C32    C     0.56302   0.45536  -0.59235   0.05000  Uiso   1.00
C33    C     0.56521   0.41235  -0.58217   0.05000  Uiso   1.00
C34    C     0.54223   0.38798  -0.55221   0.05000  Uiso   1.00
N35    N     0.52850   0.55186  -0.57151   0.05000  Uiso   1.00
C36    C     0.53575   0.51943  -0.58883   0.05000  Uiso   1.00
N37    N     0.51930   0.60768  -0.52571   0.05000  Uiso   1.00
C38    C     0.53904   0.63579  -0.55710   0.05000  Uiso   1.00
C39    C     0.52956   0.59732  -0.58552   0.05000  Uiso   1.00
C40    C     0.50829   0.62589  -0.49948   0.05000  Uiso   1.00
O41    O     0.48277   0.46432  -0.52533   0.05000  Uiso   1.00
H42    H     0.45585   0.64512  -0.45592   0.06000  Uiso   1.00
O43    O     0.41789   0.52448  -0.37661   0.06000  Uiso   1.00
H44    H     0.47036   0.48057  -0.38355   0.06000  Uiso   1.00
H45    H     0.48503   0.34447  -0.43744   0.06000  Uiso   1.00
H46    H     0.45186   0.39085  -0.39350   0.06000  Uiso   1.00
H47    H     0.49072   0.33819  -0.49894   0.06000  Uiso   1.00
H48    H     0.58091   0.47339  -0.61590   0.06000  Uiso   1.00
O49    O     0.54617   0.34612  -0.54091   0.06000  Uiso   1.00
H50    H     0.54513   0.52722  -0.61522   0.06000  Uiso   1.00
H51    H     0.58113   0.66260  -0.55448   0.06000  Uiso   1.00
H52    H     0.56045   0.61557  -0.60471   0.06000  Uiso   1.00
H53    H     0.51186   0.66361  -0.50113   0.06000  Uiso   1.00
Ag54   Ag    0.51233   0.53878   0.47672   0.00000  Uiso   1.00
Ag55   Ag    0.49156   0.46389   0.52309   0.00000  Uiso   1.00
H56    H     0.42393   0.34221  -0.44339   0.00000  Uiso   1.00
H57    H     0.51932   0.42047  -0.40504   0.00000  Uiso   1.00
H58    H     0.51963   0.65820  -0.56298   0.00000  Uiso   1.00
H59    H     0.49169   0.58549  -0.59737   0.00000  Uiso   1.00
H60    H     0.41527   0.49001   0.62745   0.00000  Uiso   1.00
H61    H     0.56975   0.33917   0.44463   0.00000  Uiso   1.00
C62    C     0.33333   0.66667  -0.33407   0.05000  Uiso   1.00
C63    C     0.33333   0.66667  -0.37362   0.05000  Uiso   1.00
loop_
_geom_bond_atom_site_label_1
_geom_bond_atom_site_label_2
_geom_bond_distance
_geom_bond_site_symmetry_2
_ccdc_geom_bond_type
C1     C62     1.574   .     S
C1     C2      1.485   .     S
C1     C3      1.485   2_665 S
C1     C5      1.486   2_665 S
C2     C4      1.350   3_565 S
C2     C6      1.374   .     D
C3     C1      1.485   3_565 S
C3     C5      1.350   3_565 S
C3     C7      1.375   .     D
C4     C63     1.487   .     S
C4     C2      1.350   2_665 S
C4     C8      1.376   .     D
C5     C1      1.486   3_565 S
C5     C3      1.350   2_665 S
C5     C9      1.376   .     D
C6     H10     1.082   .     S
C6     N14     1.358   .     S
C7     H11     1.082   .     S
C7     N15     1.357   .     S
C8     H12     1.082   .     S
C8     N14     1.359   2_665 S
C9     H13     1.082   .     S
C9     N15     1.357   2_665 S
N14    C8      1.359   3_565 S
N14    C21     1.429   2_665 S
N15    C9      1.357   3_565 S
N15    C33     1.427   5     S
C16    C17     1.389   .     S
C16    C21     1.383   .     D
C16    H42     1.081   .     S
C17    C18     1.422   .     D
C17    C40     1.495   .     S
C18    C19     1.424   .     S
C18    O22     1.387   .     S
C19    C20     1.401   .     D
C19    C24     1.498   .     S
C20    C21     1.383   .     S
C20    O43     1.393   .     S
C21    N14     1.429   3_565 S
O22    Ag54    1.948   1_554 S
O22    Ag55    1.947   1_554 S
N23    C24     1.295   .     D
N23    C27     1.457   .     S
N23    Ag55    1.971   1_554 S
C24    H44     1.080   .     S
N25    C26     1.457   .     S
N25    C30     1.295   .     D
N25    Ag55    1.972   1_554 S
C26    C27     1.536   .     S
C26    H45     1.111   .     S
C26    H56     1.110   .     S
C27    H46     1.110   .     S
C27    H57     1.110   .     S
C28    C29     1.422   .     S
C28    C31     1.422   .     D
C28    O41     1.387   .     S
C29    C30     1.493   .     S
C29    C34     1.390   .     D
C30    H47     1.082   .     S
C31    C32     1.391   .     S
C31    C36     1.495   .     S
C32    C33     1.383   .     D
C32    H48     1.081   .     S
C33    N15     1.427   9_554 S
C33    C34     1.388   .     S
C34    O49     1.391   .     S
N35    C36     1.295   .     D
N35    C39     1.457   .     S
N35    Ag54    1.971   1_554 S
C36    H50     1.082   .     S
N37    C38     1.457   .     S
N37    C40     1.295   .     D
N37    Ag54    1.970   1_554 S
C38    C39     1.536   .     S
C38    H51     1.110   .     S
C38    H58     1.111   .     S
C39    H52     1.110   .     S
C39    H59     1.110   .     S
C40    H53     1.082   .     S
O41    Ag54    1.947   1_554 S
O41    Ag55    1.947   1_554 S
O43    H60     1.008   1_554 S
O49    H61     1.010   1_554 S
Ag54   N37     1.970   1_556 S
Ag54   O22     1.948   1_556 S
Ag54   N35     1.971   1_556 S
Ag54   O41     1.947   1_556 S
Ag54   Ag55    2.726   .     S
Ag55   O22     1.947   1_556 S
Ag55   N23     1.971   1_556 S
Ag55   N25     1.972   1_556 S
Ag55   O41     1.947   1_556 S
H60    O43     1.008   1_556 S
H61    O49     1.010   1_556 S
C62    C1      1.574   2_665 S
C62    C1      1.574   3_565 S
C62    C63     1.575   .     S
C63    C4      1.487   2_665 S
C63    C4      1.487   3_565 S
